matpower/matpower40_src/case2737sop.m
function mpc = case2737sop
%CASE2737SOP    Power flow data for Polish system - summer 2004 off-peak.
%   Please see CASEFORMAT for details on the case file format.
%
%   This case represents the Polish 400, 220 and 110 kV networks during
%   summer 2004 off-peak conditions. Multiple centrally dispatchable
%   generators at a bus have not been aggregated. Generators that are
%   not centrally dispatchable in the Polish energy market are given a
%   cost of zero.
%
%   This data was graciously provided by, and is distributed with the
%   permission of, Roman Korab <roman.korab@polsl.pl>.

%   MATPOWER
%   $Id: case2737sop.m 4738 2014-07-03 00:55:39Z dchassin $

%% MATPOWER Case Format : Version 2
mpc.version = '2';

%%-----  Power Flow Data  -----%%
%% system MVA base
mpc.baseMVA = 100;

%% bus data
%	bus_i	type	Pd	Qd	Gs	Bs	area	Vm	Va	baseKV	zone	Vmax	Vmin	lam_P	lam_Q	mu_Vmax	mu_Vmin
mpc.bus = [
	1	1	0	0	0	0	1	1.0988371	3.1731556	220	1	1.11	0.95	89.4822	0.1770	0.0000	0.0000;
	2	1	0	0	0	0	1	1.1062317	2.1002592	220	1	1.11	0.95	89.8246	-0.0341	0.0000	0.0000;
	3	1	0	0	0	0	1	1.0814038	-12.414419	220	1	1.11	0.95	96.4024	-0.3433	0.0000	0.0000;
	4	1	0	0	0	0	1	1.0978935	-0.2625655	220	1	1.11	0.95	90.7381	0.0166	0.0000	0.0000;
	5	1	0	0	0	0	1	1.0979028	-0.25899449	220	1	1.11	0.95	90.7382	0.0171	0.0000	0.0000;
	6	1	0	0	0	0	1	1.0784645	-6.7111231	220	1	1.11	0.95	93.2099	-0.4768	0.0000	0.0000;
	7	1	0	0	0	0	1	1.0785472	-6.7055016	220	1	1.11	0.95	93.2067	-0.4782	0.0000	0.0000;
	8	1	0	0	0	-50	1	1.0422298	-5.3046136	400	1	1.05	0.95	92.8049	-0.7547	0.0000	0.0000;
	9	1	0	0	0	0	1	1.0422619	-5.3031789	400	1	1.05	0.95	92.8043	-0.7555	0.0000	0.0000;
	10	1	0	0	0	0	1	1.0715408	-6.753116	220	1	1.11	0.95	93.4502	-0.3129	0.0000	0.0000;
	11	1	0	0	0	0	1	1.0715132	-6.7557551	220	1	1.11	0.95	93.4515	-0.3114	0.0000	0.0000;
	12	1	0	0	0	0	1	1.0715104	-6.7512467	220	1	1.11	0.95	93.4509	-0.3098	0.0000	0.0000;
	13	1	0	0	0	0	1	1.07149	-6.755826	220	1	1.11	0.95	93.4514	-0.3099	0.0000	0.0000;
	14	1	0	0	0	-50	1	1.0362421	-4.249135	400	1	1.05	0.95	92.4628	-0.4494	0.0000	0.0000;
	15	1	0	0	0	0	1	1.05	-6.6753466	400	1	1.05	0.95	93.0327	-1.5740	0.0000	0.0000;
	16	1	0	0	0	0	1	1.05	-6.6753466	400	1	1.05	0.95	93.0325	-1.5754	2354.0866	0.0000;
	17	1	0	0	0	0	1	1.075175	-10.326271	220	1	1.11	0.95	95.1052	-0.0880	0.0000	0.0000;
	18	1	0	0	0	0	1	1.0751192	-10.32649	220	1	1.11	0.95	95.1042	-0.0861	0.0000	0.0000;
	19	1	0	0	0	0	1	1.1006118	0.29052844	220	1	1.11	0.95	90.4586	0.0218	0.0000	0.0000;
	20	1	0	0	0	0	1	1.1006331	0.28503371	220	1	1.11	0.95	90.4595	0.0218	0.0000	0.0000;
	21	1	0	0	0	0	1	1.0821751	-7.00751	220	1	1.11	0.95	93.3511	-0.1824	0.0000	0.0000;
	22	1	0	0	0	0	1	1.0821751	-7.00751	220	1	1.11	0.95	93.3511	-0.1824	0.0000	0.0000;
	23	1	0	0	0	0	1	1.0689354	-6.8094961	220	1	1.11	0.95	93.4699	-0.3584	0.0000	0.0000;
	24	1	0	0	0	0	1	1.1024425	0.68972441	220	1	1.11	0.95	90.3797	-0.0309	0.0000	0.0000;
	25	1	0	0	0	-50	1	1.0389197	-6.6165523	400	1	1.05	0.95	93.6600	-0.1245	0.0000	0.0000;
	26	2	48.178	65.087	0	0	1	1.1082562	3.5097454	220	1	1.11	0.95	89.3018	0.0000	0.0000	0.0000;
	27	2	28.145	35.087	0	0	1	1.1074115	2.0773566	220	1	1.11	0.95	89.8497	-0.0653	0.0000	0.0000;
	28	3	0	0	0	0	1	1.0449384	1.77808	400	1	1.05	0.95	90.2156	-0.0851	0.0000	0.0000;
	29	2	44.698	72	0	0	1	1.0449301	1.7863243	400	1	1.05	0.95	90.2126	-0.0850	0.0000	0.0000;
	30	1	0	0	0	0	1	1.0766538	-7.0072863	220	1	1.11	0.95	93.5523	-0.2272	0.0000	0.0000;
	31	1	0	0	0	0	1	1.0464577	0.79967202	400	1	1.05	0.95	90.3745	-0.1567	0.0000	0.0000;
	32	1	0	0	0	0	1	1.0693388	-6.9043214	220	1	1.11	0.95	93.5297	-0.2720	0.0000	0.0000;
	33	1	0	0	0	0	1	1.09915	-1.7078575	220	1	1.11	0.95	91.1525	0.0342	0.0000	0.0000;
	34	1	0	0	0	0	1	1.11	-3.5435543	220	2	1.11	0.95	90.8522	-4.4397	11730.0166	0.0000;
	35	1	0	0	0	0	1	1.0805053	-4.3551196	220	2	1.11	0.95	92.2726	-1.4203	0.0000	0.0000;
	36	1	0	0	0	0	1	1.0969905	-3.9054531	220	2	1.11	0.95	91.8665	-1.7375	0.0000	0.0000;
	37	1	0	0	0	0	1	1.0969464	-3.9069642	220	2	1.11	0.95	91.8676	-1.7350	0.0000	0.0000;
	38	1	0	0	0	0	1	1.1002849	-3.7899499	220	2	1.11	0.95	91.1584	-3.1562	0.0000	0.0000;
	39	1	0	0	0	0	1	1.1070837	-3.9625528	220	2	1.11	0.95	92.1847	-1.1120	0.0000	0.0000;
	40	1	0	0	0	0	1	1.1070251	-3.9655272	220	2	1.11	0.95	92.1859	-1.1109	0.0000	0.0000;
	41	1	0	0	0	0	1	1.0389057	-3.8675125	400	2	1.05	0.95	92.1440	-1.0852	0.0000	0.0000;
	42	2	13	0	0	0	1	1.0843581	-3.6251574	220	2	1.11	0.95	91.7425	-1.1989	0.0000	0.0000;
	43	2	13	0	0	0	1	1.0843882	-3.6162162	220	2	1.11	0.95	91.7398	-1.2022	0.0000	0.0000;
	44	2	25	0	0	0	1	1.0495182	-3.7143296	400	2	1.05	0.95	91.9966	-1.1649	0.0000	0.0000;
	45	1	0	0	0	0	1	1.0495379	-3.7138534	400	2	1.05	0.95	91.9947	-1.1665	0.0000	0.0000;
	46	1	0	0	0	0	1	1.1065925	-4.2521065	220	2	1.11	0.95	92.3785	-1.1117	0.0000	0.0000;
	47	1	0	0	0	0	1	1.0387693	-6.4543224	400	2	1.05	0.95	92.8916	-0.8887	0.0000	0.0000;
	48	1	0	0	0	0	1	1.0387728	-6.4585039	400	2	1.05	0.95	92.8935	-0.8885	0.0000	0.0000;
	49	1	0	0	0	0	1	1.0466528	-3.6073314	400	2	1.05	0.95	91.7028	-1.5086	0.0000	0.0000;
	50	1	0	0	0	0	1	1.1003654	-3.2193348	220	2	1.11	0.95	90.7898	-3.2463	0.0000	0.0000;
	51	1	0	0	0	0	1	1.1003403	-3.2167735	220	2	1.11	0.95	90.7899	-3.2444	0.0000	0.0000;
	52	1	0	0	0	0	1	1.0477994	-4.1910932	400	2	1.05	0.95	92.1922	-1.1842	0.0000	0.0000;
	53	1	0	0	0	0	1	1.0477959	-4.1902534	400	2	1.05	0.95	92.1922	-1.1841	0.0000	0.0000;
	54	1	0	0	0	0	1	1.0977199	-3.6115281	220	2	1.11	0.95	91.8352	-1.3695	0.0000	0.0000;
	55	2	13	0	0	0	1	1.0976897	-3.6048105	220	2	1.11	0.95	91.8311	-1.3710	0.0000	0.0000;
	56	2	13	0	0	0	1	1.045932	-3.7636954	400	2	1.05	0.95	92.0676	-1.1044	0.0000	0.0000;
	57	2	13	0	0	0	1	1.0459153	-3.7671604	400	2	1.05	0.95	92.0690	-1.1042	0.0000	0.0000;
	58	2	67.882	25.273	0	0	1	1.0901945	-3.8334578	220	2	1.11	0.95	91.6559	-1.9664	0.0000	0.0000;
	59	1	0	0	0	0	1	1.0902606	-3.8309695	220	2	1.11	0.95	91.6539	-1.9726	0.0000	0.0000;
	60	1	0	0	0	0	1	1.1032085	-4.3318607	220	2	1.11	0.95	92.3656	-1.1302	0.0000	0.0000;
	61	1	0	0	0	0	1	1.0898541	-4.0841342	220	2	1.11	0.95	92.0242	-1.3236	0.0000	0.0000;
	62	1	0	0	0	0	1	1.0898184	-4.0840559	220	2	1.11	0.95	92.0235	-1.3255	0.0000	0.0000;
	63	1	0	0	0	0	1	1.0375043	-4.6163516	400	2	1.05	0.95	92.3231	-0.9194	0.0000	0.0000;
	64	1	0	0	0	0	1	1.037527	-4.6243476	400	2	1.05	0.95	92.3259	-0.9197	0.0000	0.0000;
	65	1	0	224.802	0	0	1	1.0496172	-4.5991852	750	2	1.05	0.9	92.3232	-0.9027	0.0000	0.0000;
	66	1	0	0	0	0	1	1.1011486	-4.1127983	220	2	1.11	0.95	91.7378	-2.5436	0.0000	0.0000;
	67	1	0	0	0	0	1	1.101794	-4.0223494	220	2	1.11	0.95	91.6777	-2.5875	0.0000	0.0000;
	68	1	0	0	0	0	1	1.0969502	-2.7101621	220	2	1.11	0.95	90.6058	-3.0297	0.0000	0.0000;
	69	1	0	0	0	0	1	1.0999402	-1.5148341	220	3	1.11	0.95	91.1768	-0.2209	0.0000	0.0000;
	70	1	0	0	0	0	1	1.1007297	-4.4938609	220	3	1.11	0.95	92.2721	-0.9226	0.0000	0.0000;
	71	1	0	0	0	0	1	1.1007249	-4.4925157	220	3	1.11	0.95	92.2715	-0.9237	0.0000	0.0000;
	72	1	0	0	0	0	1	1.0862997	-4.3937257	220	3	1.11	0.95	92.3851	0.0114	0.0000	0.0000;
	73	1	0	0	0	0	1	1.086311	-4.3818206	220	3	1.11	0.95	92.3817	0.0111	0.0000	0.0000;
	74	1	0	0	0	0	1	1.0950289	-3.3714802	220	3	1.11	0.95	91.7651	-0.0664	0.0000	0.0000;
	75	1	0	0	0	0	1	1.0950083	-3.3728031	220	3	1.11	0.95	91.7660	-0.0664	0.0000	0.0000;
	76	1	0	0	0	0	1	1.0811849	-8.0356642	220	3	1.11	0.95	94.1814	0.0102	0.0000	0.0000;
	77	1	0	0	0	0	1	1.0811784	-8.0389669	220	3	1.11	0.95	94.1832	0.0103	0.0000	0.0000;
	78	2	27	70	0	0	1	1.0878054	-3.5711162	220	3	1.11	0.95	92.0186	0.0000	0.0000	0.0000;
	79	2	9	21	0	0	1	1.0882992	-4.1560165	220	3	1.11	0.95	92.3156	-0.0433	0.0000	0.0000;
	80	1	4.602	0.91	0	0	1	1.0872711	-4.2559736	220	3	1.11	0.95	92.4187	0.0157	0.0000	0.0000;
	81	1	0	0	0	0	1	1.0872656	-4.2561554	220	3	1.11	0.95	92.4191	0.0155	0.0000	0.0000;
	82	2	18	57	0	0	1	1.038756	-0.65564817	400	3	1.05	0.95	90.7825	-0.1757	0.0000	0.0000;
	83	1	0	0	0	0	1	1.1078773	-2.5120288	220	3	1.11	0.95	91.1798	-0.3557	0.0000	0.0000;
	84	1	0	0	0	0	1	1.0915351	-4.0744547	220	3	1.11	0.95	92.1077	-0.0084	0.0000	0.0000;
	85	1	0	0	0	0	1	1.0914976	-4.0757816	220	3	1.11	0.95	92.1087	-0.0085	0.0000	0.0000;
	86	1	32.969	-8.4	0	0	1	1.1005785	-1.6592085	220	3	1.11	0.95	91.2109	-0.2332	0.0000	0.0000;
	87	1	0	0	0	0	1	1.1005774	-1.6637056	220	3	1.11	0.95	91.2124	-0.2332	0.0000	0.0000;
	88	1	0	0	0	0	1	1.0865034	-3.6181237	220	3	1.11	0.95	91.9702	0.0584	0.0000	0.0000;
	89	1	0	0	0	0	1	1.0864764	-3.6185168	220	3	1.11	0.95	91.9702	0.0584	0.0000	0.0000;
	90	1	0	0	0	0	1	1.100397	-1.2887863	220	3	1.11	0.95	91.0457	-0.2127	0.0000	0.0000;
	91	1	0	0	0	0	1	1.1004123	-1.2922528	220	3	1.11	0.95	91.0462	-0.2136	0.0000	0.0000;
	92	1	0	0	0	0	1	1.0485753	0.0470111	400	3	1.05	0.95	90.7875	-0.2047	0.0000	0.0000;
	93	1	0	0	0	0	1	1.0485662	0.04600424	400	3	1.05	0.95	90.7877	-0.2046	0.0000	0.0000;
	94	1	0	0	0	0	1	1.089866	-3.7168499	220	3	1.11	0.95	91.9405	0.0092	0.0000	0.0000;
	95	1	0	0	0	0	1	1.0898885	-3.7217981	220	3	1.11	0.95	91.9419	0.0092	0.0000	0.0000;
	96	1	0	0	0	0	1	1.1006195	-2.9440143	220	3	1.11	0.95	91.4340	-0.1495	0.0000	0.0000;
	97	1	0	0	0	0	1	1.1006611	-2.9418413	220	3	1.11	0.95	91.4330	-0.1504	0.0000	0.0000;
	98	2	9.938	2.19	0	0	1	1.0911223	-3.8143676	220	3	1.11	0.95	92.1552	-0.1393	0.0000	0.0000;
	99	1	16.652	3.293	0	0	1	1.0911428	-3.8119524	220	3	1.11	0.95	92.1544	-0.1400	0.0000	0.0000;
	100	1	0	0	0	0	1	1.1007054	-4.4923524	220	3	1.11	0.95	92.2715	-0.9232	0.0000	0.0000;
	101	1	0	0	0	0	1	1.1007103	-4.493698	220	3	1.11	0.95	92.2721	-0.9221	0.0000	0.0000;
	102	1	0	0	0	0	1	1.0818145	-7.4626411	220	3	1.11	0.95	93.9537	0.0324	0.0000	0.0000;
	103	1	0	0	0	0	1	1.0818182	-7.4522797	220	3	1.11	0.95	93.9502	0.0325	0.0000	0.0000;
	104	2	14	40	0	0	1	1.0923127	-4.0814397	220	3	1.11	0.95	92.1322	0.0000	0.0000	0.0000;
	105	1	0	0	0	0	1	1.0922038	-4.1003381	220	3	1.11	0.95	92.1397	0.0016	0.0000	0.0000;
	106	2	7	18	0	0	1	1.0901045	-3.3210431	220	3	1.11	0.95	91.7962	0.0000	0.0000	0.0000;
	107	1	0	0	0	0	1	1.0900602	-3.3207564	220	3	1.11	0.95	91.7964	-0.0002	0.0000	0.0000;
	108	1	27.63	5.872	0	0	1	1.0943977	-3.3498601	220	3	1.11	0.95	91.9503	-0.2359	0.0000	0.0000;
	109	1	17.522	3.337	0	0	1	1.0944125	-3.3570878	220	3	1.11	0.95	91.9525	-0.2371	0.0000	0.0000;
	110	1	0	0	0	0	1	1.0856816	-4.6384324	220	3	1.11	0.95	92.6581	-0.1116	0.0000	0.0000;
	111	1	0	0	0	0	1	1.0876704	-4.1208111	220	3	1.11	0.95	92.2667	0.0927	0.0000	0.0000;
	112	1	0	0	0	0	1	1.0876767	-4.12152	220	3	1.11	0.95	92.2672	0.0922	0.0000	0.0000;
	113	1	0	0	0	0	1	1.0866617	-4.2664831	220	3	1.11	0.95	92.4521	0.0044	0.0000	0.0000;
	114	1	0	0	0	0	1	1.0866683	-4.2613941	220	3	1.11	0.95	92.4500	0.0042	0.0000	0.0000;
	115	1	0	0	0	0	1	1.0366664	-2.111324	400	3	1.05	0.95	91.4080	-0.2491	0.0000	0.0000;
	116	1	0	0	0	0	1	1.089168	-3.8412547	220	3	1.11	0.95	92.1785	-0.0890	0.0000	0.0000;
	117	2	8	15	0	0	1	1.0891509	-3.8318891	220	3	1.11	0.95	92.1757	-0.0883	0.0000	0.0000;
	118	1	0	0	0	0	1	1.0883397	-4.4254886	220	3	1.11	0.95	92.4705	-0.1887	0.0000	0.0000;
	119	1	0	0	0	0	1	1.0883542	-4.4242539	220	3	1.11	0.95	92.4696	-0.1896	0.0000	0.0000;
	120	1	0	0	0	0	1	1.0470801	-3.9626713	400	3	1.05	0.95	92.1277	-0.9603	0.0000	0.0000;
	121	1	0	0	0	0	1	1.0471181	-3.9587483	400	3	1.05	0.95	92.1260	-0.9605	0.0000	0.0000;
	122	1	0	0	0	0	1	1.043056	-1.9199464	400	3	1.05	0.95	91.3301	-0.3804	0.0000	0.0000;
	123	1	0	0	0	0	1	1.0431047	-1.9169615	400	3	1.05	0.95	91.3292	-0.3813	0.0000	0.0000;
	124	1	0	0	0	0	1	1.0851196	-4.710497	220	3	1.11	0.95	92.7212	-0.1134	0.0000	0.0000;
	125	1	2.929	0.867	0	0	1	1.0979375	-3.1116592	220	3	1.11	0.95	91.5511	-0.0543	0.0000	0.0000;
	126	2	19.898	27.707	0	0	1	1.0977572	-3.1061652	220	3	1.11	0.95	91.5514	-0.0514	0.0000	0.0000;
	127	2	12.2	25.8	0	0	1	1.03145	-1.7713769	400	3	1.05	0.95	91.2979	-0.1135	0.0000	0.0000;
	128	1	0	0	0	0	1	1.0313793	-1.7757389	400	3	1.05	0.95	91.2999	-0.1129	0.0000	0.0000;
	129	1	0	0	0	0	1	1.1004705	-1.753404	220	3	1.11	0.95	91.2543	-0.2341	0.0000	0.0000;
	130	1	0	0	0	0	1	1.1004246	-1.7541935	220	3	1.11	0.95	91.2542	-0.2333	0.0000	0.0000;
	131	1	0	0	0	0	1	1.0997933	-1.6360908	220	3	1.11	0.95	91.2028	-0.2119	0.0000	0.0000;
	132	2	137	9	0	0	1	1.080568	-8.4583986	220	3	1.11	0.95	94.3690	0.0000	0.0000	0.0000;
	133	2	137	6	0	0	1	1.080567	-8.4631219	220	3	1.11	0.95	94.3708	0.0000	0.0000	0.0000;
	134	1	0.515	1.973	0	0	1	1.1010272	-2.5005347	220	4	1.11	0.95	91.3665	0.0003	0.0000	0.0000;
	135	2	15.242	14.277	0	0	1	1.1010531	-2.4977759	220	4	1.11	0.95	91.3654	-0.0000	0.0000	0.0000;
	136	1	0	0	0	0	1	1.1090223	-2.907547	220	4	1.11	0.95	90.9609	-0.3853	0.0000	0.0000;
	137	1	0	0	0	0	1	1.1084034	-2.2905373	220	4	1.11	0.95	90.6905	-0.2757	0.0000	0.0000;
	138	1	0	0	0	0	1	1.0335809	-2.2051876	400	4	1.05	0.95	91.1851	-0.2239	0.0000	0.0000;
	139	1	0	0	0	0	1	1.0336006	-2.2078	400	4	1.05	0.95	91.1863	-0.2241	0.0000	0.0000;
	140	1	0	0	0	0	1	1.101858	-7.2447288	220	4	1.11	0.95	93.9426	-0.2038	0.0000	0.0000;
	141	1	0	0	0	0	1	1.0937023	-6.1672989	220	4	1.11	0.95	94.2776	0.0247	0.0000	0.0000;
	142	1	0	0	0	0	1	1.0937023	-6.1672989	220	4	1.11	0.95	94.2776	0.0247	0.0000	0.0000;
	143	1	0	0	0	0	1	1.102517	-6.0408918	220	4	1.11	0.95	93.6117	-0.4728	0.0000	0.0000;
	144	1	0	0	0	0	1	1.1064125	-3.4132987	220	4	1.11	0.95	91.1515	-0.2253	0.0000	0.0000;
	145	1	0	0	0	0	1	1.1064125	-3.4132987	220	4	1.11	0.95	91.1515	-0.2253	0.0000	0.0000;
	146	1	7.636	13.257	0	0	1	1.0990818	-4.310413	220	4	1.11	0.95	92.0820	0.0139	0.0000	0.0000;
	147	1	0	0	0	0	1	1.0991439	-4.3087158	220	4	1.11	0.95	92.0799	0.0134	0.0000	0.0000;
	148	2	10.87	14.867	0	0	1	1.0964007	-5.3203788	220	4	1.11	0.95	93.8293	-0.0074	0.0000	0.0000;
	149	1	0	0	0	0	1	1.0964815	-5.3319086	220	4	1.11	0.95	93.8358	-0.0086	0.0000	0.0000;
	150	2	10.989	15	0	0	1	1.0336749	-8.0337652	400	4	1.05	0.95	94.4951	-0.0000	0.0000	0.0000;
	151	2	20.672	21.479	0	0	1	1.0336702	-8.0315014	400	4	1.05	0.95	94.4943	-0.0004	0.0000	0.0000;
	152	1	0	0	0	0	1	1.098391	-6.7794234	220	4	1.11	0.95	93.9336	-0.2218	0.0000	0.0000;
	153	1	0	0	0	0	1	1.1077538	-4.3612447	220	4	1.11	0.95	92.2945	-0.9851	0.0000	0.0000;
	154	1	0	0	0	0	1	1.1077553	-4.3636195	220	4	1.11	0.95	92.2953	-0.9815	0.0000	0.0000;
	155	2	0	0	0	0	1	1.1054692	-0.91838753	220	4	1.11	0.95	90.1696	-0.0449	0.0000	0.0000;
	156	2	13.87	33	0	0	1	1.1054826	-0.91263647	220	4	1.11	0.95	90.1689	-0.0454	0.0000	0.0000;
	157	1	0	0	0	0	1	1.0208966	-0.02424863	400	4	1.05	0.95	90.2541	-0.0039	0.0000	0.0000;
	158	2	9.989	25	0	0	1	1.0208614	-0.01970188	400	4	1.05	0.95	90.2525	-0.0033	0.0000	0.0000;
	159	1	0	0	0	0	1	1.0982403	-6.1687192	220	4	1.11	0.95	94.2231	-0.0428	0.0000	0.0000;
	160	1	0	0	0	0	1	1.0982403	-6.1687192	220	4	1.11	0.95	94.2231	-0.0428	0.0000	0.0000;
	161	1	0	0	0	0	1	1.0381031	-2.850795	400	4	1.05	0.95	91.4175	-0.2802	0.0000	0.0000;
	162	1	0	0	0	0	1	1.0380799	-2.3257801	400	4	1.05	0.95	91.2251	-0.2678	0.0000	0.0000;
	163	1	0	0	0	0	1	1.0380786	-2.3254376	400	4	1.05	0.95	91.2250	-0.2678	0.0000	0.0000;
	164	2	11.664	11	0	0	1	1.1005618	-4.4219209	220	4	1.11	0.95	92.1080	-0.0000	0.0000	0.0000;
	165	2	11.564	10.667	0	0	1	1.1005897	-4.4365739	220	4	1.11	0.95	92.1152	-0.0002	0.0000	0.0000;
	166	1	0	0	0	0	1	1.1005897	-4.4365739	220	4	1.11	0.95	92.1152	-0.0002	0.0000	0.0000;
	167	1	0	0	0	0	1	1.1078578	-11.188191	220	4	1.11	0.95	96.2459	-0.3679	0.0000	0.0000;
	168	1	0	0	0	0	1	1.0930144	-6.2258786	220	4	1.11	0.95	94.3017	0.0429	0.0000	0.0000;
	169	1	0	0	0	0	1	1.1079187	-7.7992584	220	4	1.11	0.95	94.3401	-0.3672	0.0000	0.0000;
	170	1	0	0	0	0	1	1.10792	-7.8048332	220	4	1.11	0.95	94.3422	-0.3673	0.0000	0.0000;
	171	1	0	0	0	0	1	1.0273607	-8.0768261	400	4	1.05	0.95	94.4134	-0.2652	0.0000	0.0000;
	172	1	0	0	0	0	1	1.0273607	-8.0768261	400	4	1.05	0.95	94.4134	-0.2652	0.0000	0.0000;
	173	1	0	0	0	0	1	1.0972304	-4.9313669	220	4	1.11	0.95	92.7843	-0.1592	0.0000	0.0000;
	174	1	0	0	0	0	1	1.0972427	-4.9292116	220	4	1.11	0.95	92.7836	-0.1585	0.0000	0.0000;
	175	1	0	0	0	0	1	1.0936299	-6.2290183	220	4	1.11	0.95	92.8329	-0.0759	0.0000	0.0000;
	176	1	0	0	0	0	1	1.1086642	-2.8518944	220	4	1.11	0.95	90.9932	-0.3999	0.0000	0.0000;
	177	1	0	0	0	0	1	1.1086718	-2.8506968	220	4	1.11	0.95	90.9935	-0.4011	0.0000	0.0000;
	178	1	0	0	0	0	1	1.11	-3.0395622	220	4	1.11	0.95	91.1245	-0.7002	1510.5743	0.0000;
	179	1	0	0	0	0	1	1.11	-3.0395622	220	4	1.11	0.95	91.1245	-0.7002	0.0000	0.0000;
	180	2	3.13	1.5	0	0	1	1.11	-3.4532746	220	4	1.11	0.95	91.8736	-1.4635	3217.2702	0.0000;
	181	1	0	0	0	0	1	1.0976593	-5.2093053	220	4	1.11	0.95	92.8581	-0.3246	0.0000	0.0000;
	182	1	0	0	0	0	1	1.0906174	-11.550683	220	5	1.11	0.95	95.7641	0.0476	0.0000	0.0000;
	183	1	0	0	0	0	1	1.10155	-14.207909	220	5	1.11	0.95	96.9396	-0.0429	0.0000	0.0000;
	184	1	0	0	0	0	1	1.0352196	-13.758822	400	5	1.05	0.95	96.7166	0.0058	0.0000	0.0000;
	185	1	0	0	0	0	1	1.0352336	-13.750658	400	5	1.05	0.95	96.7128	0.0058	0.0000	0.0000;
	186	1	0	0	0	0	1	1.035852	-16.309541	400	5	1.05	0.95	97.9087	-0.0415	0.0000	0.0000;
	187	1	0	0	0	0	1	1.0358756	-16.315051	400	5	1.05	0.95	97.9110	-0.0420	0.0000	0.0000;
	188	1	0	0	0	0	1	1.1013411	-15.79941	220	5	1.11	0.95	98.0998	-0.0701	0.0000	0.0000;
	189	1	0	0	0	0	1	1.1013634	-15.799937	220	5	1.11	0.95	98.1000	-0.0706	0.0000	0.0000;
	190	1	0	0	0	0	1	1.0967955	-13.647542	220	5	1.11	0.95	96.6631	-0.0479	0.0000	0.0000;
	191	1	0	0	0	0	1	1.0967841	-13.641326	220	5	1.11	0.95	96.6619	-0.0478	0.0000	0.0000;
	192	1	0	0	0	0	1	1.0251116	-11.536722	400	5	1.05	0.95	96.1553	0.0868	0.0000	0.0000;
	193	1	0	0	0	0	1	1.0911228	-11.119661	220	5	1.11	0.95	95.6728	0.0611	0.0000	0.0000;
	194	1	0	0	0	0	1	1.091116	-11.118625	220	5	1.11	0.95	95.6729	0.0610	0.0000	0.0000;
	195	1	0	0	0	0	1	1.0431001	-16.235603	400	5	1.05	0.95	98.0356	-0.1232	0.0000	0.0000;
	196	1	0	0	0	0	1	1.043097	-16.2353	400	5	1.05	0.95	98.0359	-0.1231	0.0000	0.0000;
	197	1	0	0	0	0	1	1.0714251	-13.77591	220	5	1.11	0.95	97.5431	-0.0369	0.0000	0.0000;
	198	1	0	0	0	0	1	1.0714109	-13.77467	220	5	1.11	0.95	97.5417	-0.0368	0.0000	0.0000;
	199	1	0	0	0	-117	1	1.0269754	-15.550639	400	5	1.05	0.95	97.4200	0.1085	0.0000	0.0000;
	200	1	0	0	0	0	1	1.0270217	-15.543467	400	5	1.05	0.95	97.4168	0.1079	0.0000	0.0000;
...
];

%% generator data
%	bus	Pg	Qg	Qmax	Qmin	Vg	mBase	status	Pmax	Pmin	Pc1	Pc2	Qc1min	Qc1max	Qc2min	Qc2max	ramp_agc	ramp_10	ramp_30	ramp_q	apf	mu_Pmax	mu_Pmin	mu_Qmax	mu_Qmin
mpc.gen = [
	17	0	0	120	-22	1.07567	241.9	0	210	140	0	0	0	0	0	0	0	0	0	0	0	0.0000	0.0000	0.0000	0.0000;
	17	0	0	120	-22	1.07567	233.2	0	200	140	0	0	0	0	0	0	0	0	0	0	0	0.0000	0.0000	0.0000	0.0000;
	26	370	2.61068	190	-19	1.08527	415.9	1	370	290	0	0	0	0	0	0	0	0	0	0	0	13.2018	0.0000	0.0000	0.0000;
	27	360	-19	190	-19	1.08827	407.1	1	360	290	0	0	0	0	0	0	0	0	0	0	0	13.7497	0.0000	0.0000	0.0653;
	27	0	0	190	-19	1.08827	407.1	0	360	290	0	0	0	0	0	0	0	0	0	0	0	0.0000	0.0000	0.0000	0.0000;
	27	0	0	190	-19	1.08827	415.9	0	370	290	0	0	0	0	0	0	0	0	0	0	0	0.0000	0.0000	0.0000	0.0000;
	26	370	2.61068	190	-19	1.08527	415.9	1	370	290	0	0	0	0	0	0	0	0	0	0	0	13.2018	0.0000	0.0000	0.0000;
	28	370	-19	190	-19	1.027	415.9	1	370	290	0	0	0	0	0	0	0	0	0	0	0	14.1156	0.0000	0.0000	0.0851;
	28	0	0	190	-19	1.027	415.9	0	370	290	0	0	0	0	0	0	0	0	0	0	0	0.0000	0.0000	0.0000	0.0000;
	28	0	0	190	-19	1.027	415.9	0	370	290	0	0	0	0	0	0	0	0	0	0	0	0.0000	0.0000	0.0000	0.0000;
	29	0	0	190	-19	1.027	415.9	0	370	290	0	0	0	0	0	0	0	0	0	0	0	0.0000	0.0000	0.0000	0.0000;
	29	370	-19	190	-19	1.027	415.9	1	370	290	0	0	0	0	0	0	0	0	0	0	0	14.1126	0.0000	0.0000	0.0850;
	29	370	-19	190	-19	1.027	415.9	1	370	290	0	0	0	0	0	0	0	0	0	0	0	14.1126	0.0000	0.0000	0.0850;
	42	130	-34	135	-34	1.09086	253.9	1	215	130	0	0	0	0	0	0	0	0	0	0	0	0.0000	10.3075	0.0000	1.1989;
	42	0	0	130	-34	1.09086	242.7	0	205	135	0	0	0	0	0	0	0	0	0	0	0	0.0000	0.0000	0.0000	0.0000;
	42	0	0	145	-34	1.09086	267.7	0	225	110	0	0	0	0	0	0	0	0	0	0	0	0.0000	0.0000	0.0000	0.0000;
	43	0	0	145	-34	1.09091	267.7	0	225	120	0	0	0	0	0	0	0	0	0	0	0	0.0000	0.0000	0.0000	0.0000;
	43	130	-34	145	-34	1.09091	267.7	1	225	130	0	0	0	0	0	0	0	0	0	0	0	0.0000	10.3102	0.0000	1.2022;
	43	0	0	130	-34	1.09091	242.7	0	205	135	0	0	0	0	0	0	0	0	0	0	0	0.0000	0.0000	0.0000	0.0000;
	44	255	-47	363	-47	1.04817	646.5	1	535	255	0	0	0	0	0	0	0	0	0	0	0	0.0000	10.0534	0.0000	1.1649;
	44	0	0	348	-100	1.04817	659.3	0	560	250	0	0	0	0	0	0	0	0	0	0	0	0.0000	0.0000	0.0000	0.0000;
	54	0	0	104	-1	1.09127	247.9	0	225	129	0	0	0	0	0	0	0	0	0	0	0	0.0000	0.0000	0.0000	0.0000;
	55	129	-16	130	-16	1.09126	259.9	1	225	129	0	0	0	0	0	0	0	0	0	0	0	0.0000	13.5189	0.0000	1.3710;
	54	0	0	130	-16	1.09127	259.9	0	225	129	0	0	0	0	0	0	0	0	0	0	0	0.0000	0.0000	0.0000	0.0000;
	56	129	-16	130	-16	1.03933	259.9	1	225	129	0	0	0	0	0	0	0	0	0	0	0	0.0000	13.2824	0.0000	1.1044;
	57	129	-16	130	-16	1.03932	259.9	1	225	129	0	0	0	0	0	0	0	0	0	0	0	0.0000	13.2810	0.0000	1.1042;
	57	0	0	104	-1	1.03932	247.9	0	225	129	0	0	0	0	0	0	0	0	0	0	0	0.0000	0.0000	0.0000	0.0000;
	57	0	0	130	-16	1.03932	259.9	0	225	129	0	0	0	0	0	0	0	0	0	0	0	0.0000	0.0000	0.0000	0.0000;
	58	39.7	0	30	0	1.09864	57.7	1	39.7	39.7	0	0	0	0	0	0	0	0	0	0	0	91.6559	0.0000	0.0000	1.9664;
	78	140	21.9558	123	-15	1.06723	256.4	1	225	140	0	0	0	0	0	0	0	0	0	0	0	0.0000	3.2914	0.0000	0.0000;
	78	140	4.97652	123	-15	1.06723	256.4	1	225	140	0	0	0	0	0	0	0	0	0	0	0	0.0000	3.2914	0.0000	0.0000;
	79	0	0	123	-15	1.07077	252	0	220	140	0	0	0	0	0	0	0	0	0	0	0	0.0000	0.0000	0.0000	0.0000;
	79	0	0	123	-15	1.07077	256.4	0	225	140	0	0	0	0	0	0	0	0	0	0	0	0.0000	0.0000	0.0000	0.0000;
	79	140	-15	123	-15	1.07077	256.4	1	225	140	0	0	0	0	0	0	0	0	0	0	0	0.0000	2.9944	0.0000	0.0433;
	82	380	-31	232	-31	1.0186	445.2	1	380	220	0	0	0	0	0	0	0	0	0	0	0	0.7525	0.0000	0.0000	0.1757;
	82	0	0	228	-30	1.0186	434.6	0	370	220	0	0	0	0	0	0	0	0	0	0	0	0.0000	0.0000	0.0000	0.0000;
	98	8.998	0	1	0	1.07416	12	1	8.998	8.998	0	0	0	0	0	0	0	0	0	0	0	92.1552	0.0000	0.0000	0.1393;
	98	5.998	0	1	0	1.07416	6.1	1	5.998	5.998	0	0	0	0	0	0	0	0	0	0	0	92.1552	0.0000	0.0000	0.1393;
	104	134	78.277	123	-15	1.06927	256.4	1	225	134	0	0	0	0	0	0	0	0	0	0	0	0.0000	0.6478	0.0000	0.0000;
	105	0	0	123	-15	1.06917	256.4	0	225	134	0	0	0	0	0	0	0	0	0	0	0	0.0000	0.0000	0.0000	0.0000;
	106	79	3.09041	80	-2	1.06843	144.2	1	120	79	0	0	0	0	0	0	0	0	0	0	0	0.0000	2.2938	0.0000	0.0000;
	107	0	0	80	-2	1.0684	144.2	0	120	79	0	0	0	0	0	0	0	0	0	0	0	0.0000	0.0000	0.0000	0.0000;
	116	0	0	90	-20	1.07086	150	0	120	90	0	0	0	0	0	0	0	0	0	0	0	0.0000	0.0000	0.0000	0.0000;
	117	70	-2	82	-2	1.07082	145.3	1	120	70	0	0	0	0	0	0	0	0	0	0	0	0.0000	4.9443	0.0000	0.0883;
	118	0	0	40	0	1.07063	117	0	110	80	0	0	0	0	0	0	0	0	0	0	0	0.0000	0.0000	0.0000	0.0000;
	125	0	0	135	-35	1.0744	253.9	0	215	160	0	0	0	0	0	0	0	0	0	0	0	0.0000	0.0000	0.0000	0.0000;
	126	0	0	140	-35	1.07421	265	0	225	140	0	0	0	0	0	0	0	0	0	0	0	0.0000	0.0000	0.0000	0.0000;
	126	215	-35	135	-35	1.07421	253.9	1	215	160	0	0	0	0	0	0	0	0	0	0	0	0.3914	0.0000	0.0000	0.0514;
	127	225	-40	140	-40	1.01239	265	1	225	140	0	0	0	0	0	0	0	0	0	0	0	0.1379	0.0000	0.0000	0.1135;
	127	0	0	137	-40	1.01239	259.2	0	220	160	0	0	0	0	0	0	0	0	0	0	0	0.0000	0.0000	0.0000	0.0000;
	132	0	16.868	40	-38	1.06355	131.2	1	0	0	0	0	0	0	0	0	0	0	0	0	0	94.3590	0.0000	0.0000	0.0000;
	132	0	0	40	-38	1.06355	131.2	0	0	0	0	0	0	0	0	0	0	0	0	0	0	0.0000	0.0000	0.0000	0.0000;
	133	0	0	40	-38	1.06355	131.2	0	0	0	0	0	0	0	0	0	0	0	0	0	0	0.0000	0.0000	0.0000	0.0000;
	133	0	13.9428	40	-38	1.06355	131.2	1	0	0	0	0	0	0	0	0	0	0	0	0	0	94.3608	0.0000	0.0000	0.0000;
	134	0	0	90	0	1.0664	150	0	120	100	0	0	0	0	0	0	0	0	0	0	0	0.0000	0.0000	0.0000	0.0000;
	134	0	0	90	0	1.0664	150	0	120	100	0	0	0	0	0	0	0	0	0	0	0	0.0000	0.0000	0.0000	0.0000;
	135	100	27.1095	90	0	1.06642	150	1	120	100	0	0	0	0	0	0	0	0	0	0	0	0.0000	1.0646	0.0000	0.0000;
	146	0	0	12	0	1.05776	51.4	0	50	30	0	0	0	0	0	0	0	0	0	0	0	0.0000	0.0000	0.0000	0.0000;
	146	0	0	12	0	1.05776	51.4	0	50	30	0	0	0	0	0	0	0	0	0	0	0	0.0000	0.0000	0.0000	0.0000;
	147	0	0	90	0	1.05781	150	0	120	90	0	0	0	0	0	0	0	0	0	0	0	0.0000	0.0000	0.0000	0.0000;
	148	0	0	149	-48	1.09091	267.4	0	222	90	0	0	0	0	0	0	0	0	0	0	0	0.0000	0.0000	0.0000	0.0000;
	148	0	0	149	-48	1.09091	253.4	0	205	135	0	0	0	0	0	0	0	0	0	0	0	0.0000	0.0000	0.0000	0.0000;
	148	0	0	149	-48	1.09091	253.4	0	205	135	0	0	0	0	0	0	0	0	0	0	0	0.0000	0.0000	0.0000	0.0000;
	148	90	-48	149	-48	1.09091	267.4	1	222	90	0	0	0	0	0	0	0	0	0	0	0	0.0000	22.1807	0.0000	0.0074;
	150	90	24.8292	123	-23	1.01688	253.8	1	222	90	0	0	0	0	0	0	0	0	0	0	0	0.0000	21.5149	0.0000	0.0000;
	151	90	-41.4177	149	-48	1.01688	267.4	1	222	90	0	0	0	0	0	0	0	0	0	0	0	0.0000	21.5157	0.0000	0.0004;
	151	0	0	123	-23	1.01688	253.8	0	222	90	0	0	0	0	0	0	0	0	0	0	0	0.0000	0.0000	0.0000	0.0000;
	155	94	-53	149	-53	1.08864	278.3	1	235	94	0	0	0	0	0	0	0	0	0	0	0	0.0000	8.6704	0.0000	0.0449;
	155	0	0	149	-53	1.08864	278.3	0	235	94	0	0	0	0	0	0	0	0	0	0	0	0.0000	0.0000	0.0000	0.0000;
	155	0	0	120	0	1.08864	287.3	0	261	104	0	0	0	0	0	0	0	0	0	0	0	0.0000	0.0000	0.0000	0.0000;
	155	0	0	132	-40	1.08864	292.5	0	261	104	0	0	0	0	0	0	0	0	0	0	0	0.0000	0.0000	0.0000	0.0000;
	156	0	0	120	0	1.08864	287.3	0	261	104	0	0	0	0	0	0	0	0	0	0	0	0.0000	0.0000	0.0000	0.0000;
	156	130	-22	117	-22	1.08864	236	1	205	130	0	0	0	0	0	0	0	0	0	0	0	0.0000	8.6711	0.0000	0.0454;
	156	120	-20	109	-20	1.08864	233.1	1	206	120	0	0	0	0	0	0	0	0	0	0	0	0.0000	8.6711	0.0000	0.0454;
	156	0	0	109	-20	1.08864	233.1	0	206	120	0	0	0	0	0	0	0	0	0	0	0	0.0000	0.0000	0.0000	0.0000;
	158	120	-20	109	-20	0.99847	233.1	1	206	120	0	0	0	0	0	0	0	0	0	0	0	0.0000	8.5875	0.0000	0.0033;
	164	0	0	104	-23	1.05768	225.4	0	200	150	0	0	0	0	0	0	0	0	0	0	0	0.0000	0.0000	0.0000	0.0000;
	164	200	64.2167	104	-23	1.05768	225.4	1	200	150	0	0	0	0	0	0	0	0	0	0	0	2.8880	0.0000	0.0000	0.0000;
	165	200	75.1437	104	-23	1.05768	225.4	1	200	150	0	0	0	0	0	0	0	0	0	0	0	2.8952	0.0000	0.0000	0.0002;
	165	0	0	104	-23	1.05768	225.4	0	200	150	0	0	0	0	0	0	0	0	0	0	0	0.0000	0.0000	0.0000	0.0000;
	180	120	0	110	0	1.09138	219.5	1	120	120	0	0	0	0	0	0	0	0	0	0	0	91.8736	0.0000	0.0000	1.4635;
	205	0	39.4264	80	-30.001	0.98664	196.1	1	0	0	0	0	0	0	0	0	0	0	0	0	0	98.1653	0.0000	0.0000	0.0000;
	205	0	-16.382	80	-30.001	0.98664	196.1	1	0	0	0	0	0	0	0	0	0	0	0	0	0	98.1653	0.0000	0.0000	0.0000;
	205	0	0	110	-60	0.98664	210.1	0	0	0	0	0	0	0	0	0	0	0	0	0	0	0.0000	0.0000	0.0000	0.0000;
	206	0	0	110	-60	0.98669	210.1	0	0	0	0	0	0	0	0	0	0	0	0	0	0	0.0000	0.0000	0.0000	0.0000;
	215	23	0	20	0	1.09091	58.5	1	23	23	0	0	0	0	0	0	0	0	0	0	0	93.5881	0.0000	0.0000	0.9775;
	215	0	0	20	0	1.09091	53.9	0	0	0	0	0	0	0	0	0	0	0	0	0	0	0.0000	0.0000	0.0000	0.0000;
	215	0	0	20	0	1.09091	53.9	0	0	0	0	0	0	0	0	0	0	0	0	0	0	0.0000	0.0000	0.0000	0.0000;
	215	7	0	20	0	1.09091	30.5	1	7	7	0	0	0	0	0	0	0	0	0	0	0	93.5881	0.0000	0.0000	0.9775;
	221	1.55	0	1	0	1.0868	2.3	1	1.55	1.55	0	0	0	0	0	0	0	0	0	0	0	91.7879	0.0000	0.0000	0.2327;
	222	1.55	0.262495	1	0	1.0748	2.3	1	1.55	1.55	0	0	0	0	0	0	0	0	0	0	0	91.9673	0.0000	0.0000	0.0000;
	240	6.3	4.18608	6	0	1.05704	9.8	1	6.3	6.3	0	0	0	0	0	0	0	0	0	0	0	95.2580	0.0000	0.0000	0.0000;
	247	370	-19	190	-19	1.02878	415.9	1	370	290	0	0	0	0	0	0	0	0	0	0	0	13.5459	0.0000	0.0018	0.0000;
	310	0	0	7	0	1.07912	27.9	0	0	0	0	0	0	0	0	0	0	0	0	0	0	0.0000	0.0000	0.0000	0.0000;
	310	0	0	7	0	1.07912	27.9	0	0	0	0	0	0	0	0	0	0	0	0	0	0	0.0000	0.0000	0.0000	0.0000;
	310	11	7	7	4	1.07912	30.8	1	11	11	0	0	0	0	0	0	0	0	0	0	0	90.9502	0.0000	0.0545	0.0000;
	310	0	0	7	0	1.07912	27.9	0	0	0	0	0	0	0	0	0	0	0	0	0	0	0.0000	0.0000	0.0000	0.0000;
	310	0	0	6	0	1.07912	27.7	0	0	0	0	0	0	0	0	0	0	0	0	0	0	0.0000	0.0000	0.0000	0.0000;
	310	0	0	7	0	1.07912	27.9	0	0	0	0	0	0	0	0	0	0	0	0	0	0	0.0000	0.0000	0.0000	0.0000;
	310	0	0	7	0	1.07912	27.9	0	0	0	0	0	0	0	0	0	0	0	0	0	0	0.0000	0.0000	0.0000	0.0000;
	311	0	0	15	0	1.07689	36.7	0	0	0	0	0	0	0	0	0	0	0	0	0	0	0.0000	0.0000	0.0000	0.0000;
	311	0	0	15	0	1.07689	57	0	0	0	0	0	0	0	0	0	0	0	0	0	0	0.0000	0.0000	0.0000	0.0000;
	312	16	11.5985	15	0	1.07487	36.7	1	16	16	0	0	0	0	0	0	0	0	0	0	0	91.4685	0.0000	0.0000	0.0000;
	312	0	0	15	0	1.07487	57	0	0	0	0	0	0	0	0	0	0	0	0	0	0	0.0000	0.0000	0.0000	0.0000;
	314	25	5.94042	20	0	1.08518	53.9	1	25	25	0	0	0	0	0	0	0	0	0	0	0	90.6475	0.0000	0.0000	0.0000;
	314	0	0	20	0	1.08518	53.9	0	0	0	0	0	0	0	0	0	0	0	0	0	0	0.0000	0.0000	0.0000	0.0000;
	315	0	0	40	0	1.07925	107.7	0	0	0	0	0	0	0	0	0	0	0	0	0	0	0.0000	0.0000	0.0000	0.0000;
	323	2.5	3	3	0	1.08432	4.1	1	2.5	2.5	0	0	0	0	0	0	0	0	0	0	0	90.7163	0.0000	0.0092	0.0000;
	366	40	6.08732	12	0	1.06091	47.8	1	40	40	0	0	0	0	0	0	0	0	0	0	0	93.8344	0.0000	0.0000	0.0000;
	367	40	5.46894	12	0	1.06011	47.8	1	40	40	0	0	0	0	0	0	0	0	0	0	0	93.4746	0.0000	0.0000	0.0000;
	368	40	4.52361	12	0	1.06213	47.8	1	40	40	0	0	0	0	0	0	0	0	0	0	0	93.6481	0.0000	0.0000	0.0000;
	369	40	0	12	0	1.06706	47.8	1	40	40	0	0	0	0	0	0	0	0	0	0	0	93.3527	0.0000	0.0000	0.0144;
	386	140	-45.4985	138	-47	1.08555	251.3	1	210	140	0	0	0	0	0	0	0	0	0	0	0	0.0000	18.7728	0.0000	0.0000;
	386	0	0	10	0	1.08555	26.9	0	25	12	0	0	0	0	0	0	0	0	0	0	0	0.0000	0.0000	0.0000	0.0000;
	387	10	0	10	0	1.06898	19.7	1	17	10	0	0	0	0	0	0	0	0	0	0	0	0.0000	17.4105	0.0000	0.1532;
	444	1.5	1.56509	2	0	1.03619	3.6	1	1.5	1.5	0	0	0	0	0	0	0	0	0	0	0	90.2706	0.0000	0.0000	0.0000;
	453	5.21	0	2	0	1.0809	6.1	1	5.21	5.21	0	0	0	0	0	0	0	0	0	0	0	92.3977	0.0000	0.0000	0.3884;
	453	0	0	2	0	1.0809	6.1	0	0	0	0	0	0	0	0	0	0	0	0	0	0	0.0000	0.0000	0.0000	0.0000;
	486	1.4	0.7	0.7	0	1.03025	1.7	1	1.4	1.4	0	0	0	0	0	0	0	0	0	0	0	91.1651	0.0000	0.0153	0.0000;
	537	25	0	14	0	1.06135	53.9	1	25	25	0	0	0	0	0	0	0	0	0	0	0	93.9619	0.0000	0.0000	0.1009;
	537	0	0	14	0	1.06135	34.9	0	0	0	0	0	0	0	0	0	0	0	0	0	0	0.0000	0.0000	0.0000	0.0000;
	537	0	0	14	0	1.06135	34	0	0	0	0	0	0	0	0	0	0	0	0	0	0	0.0000	0.0000	0.0000	0.0000;
	537	0	0	14	0	1.06135	105.9	0	0	0	0	0	0	0	0	0	0	0	0	0	0	0.0000	0.0000	0.0000	0.0000;
	537	0	0	14	0	1.06135	105.9	0	0	0	0	0	0	0	0	0	0	0	0	0	0	0.0000	0.0000	0.0000	0.0000;
	538	20	0	17.5	0	1.06273	36.5	1	20	20	0	0	0	0	0	0	0	0	0	0	0	93.8344	0.0000	0.0000	0.0782;
	538	20	0	17.5	0	1.06273	35.6	1	20	20	0	0	0	0	0	0	0	0	0	0	0	93.8344	0.0000	0.0000	0.0782;
	538	0	0	17.5	0	1.06273	126.2	0	0	0	0	0	0	0	0	0	0	0	0	0	0	0.0000	0.0000	0.0000	0.0000;
	538	0	0	17.5	0	1.06273	106.4	0	0	0	0	0	0	0	0	0	0	0	0	0	0	0.0000	0.0000	0.0000	0.0000;
	552	1.4	0.7	0.7	0	1.05556	1.7	1	1.4	1.4	0	0	0	0	0	0	0	0	0	0	0	94.5110	0.0000	0.0144	0.0000;
	560	22.5	2.55494	10	0	1.05752	35.4	1	22.5	22.5	0	0	0	0	0	0	0	0	0	0	0	94.3389	0.0000	0.0000	0.0000;
	560	0	0	5	0	1.05752	28.4	0	0	0	0	0	0	0	0	0	0	0	0	0	0	0.0000	0.0000	0.0000	0.0000;
	560	0	0	5	0	1.05752	26.5	0	0	0	0	0	0	0	0	0	0	0	0	0	0	0.0000	0.0000	0.0000	0.0000;
	560	0	0	5	0	1.05752	30.4	0	0	0	0	0	0	0	0	0	0	0	0	0	0	0.0000	0.0000	0.0000	0.0000;
	560	0	0	5	0	1.05752	34.4	0	0	0	0	0	0	0	0	0	0	0	0	0	0	0.0000	0.0000	0.0000	0.0000;
	561	22.5	0	10	0	1.0595	35.4	1	22.5	22.5	0	0	0	0	0	0	0	0	0	0	0	94.1928	0.0000	0.0000	0.0742;
	561	0	0	5	0	1.0595	34.4	0	0	0	0	0	0	0	0	0	0	0	0	0	0	0.0000	0.0000	0.0000	0.0000;
	561	0	0	5	0	1.0595	26.5	0	0	0	0	0	0	0	0	0	0	0	0	0	0	0.0000	0.0000	0.0000	0.0000;
	561	0	0	5	0	1.0595	34.4	0	0	0	0	0	0	0	0	0	0	0	0	0	0	0.0000	0.0000	0.0000	0.0000;
	574	1	1.23635	4	0	1.07812	8.9	1	1	1	0	0	0	0	0	0	0	0	0	0	0	91.4956	0.0000	0.0000	0.0000;
	627	76	0	30	0	1.09176	97.7	1	76	76	0	0	0	0	0	0	0	0	0	0	0	88.4239	0.0000	0.0000	1.5661;
	627	30	0	30	0	1.09176	46.8	1	30	30	0	0	0	0	0	0	0	0	0	0	0	88.4239	0.0000	0.0000	1.5661;
	665	130	-34	145	-34	1.09108	267.7	1	225	130	0	0	0	0	0	0	0	0	0	0	0	0.0000	11.0839	0.0000	0.5354;
	666	0	0	145	-34	1.09079	267.7	0	225	130	0	0	0	0	0	0	0	0	0	0	0	0.0000	0.0000	0.0000	0.0000;
	686	140	0	30	0	1.09115	182.5	1	140	140	0	0	0	0	0	0	0	0	0	0	0	90.0530	0.0000	0.0000	2.7870;
	686	47	0	30	0	1.09115	77.5	1	47	47	0	0	0	0	0	0	0	0	0	0	0	90.0530	0.0000	0.0000	2.7870;
	692	1.98	0	1	0	1.09065	2.7	1	1.98	1.98	0	0	0	0	0	0	0	0	0	0	0	90.7605	0.0000	0.0000	2.7235;
	717	1.32	0	1.3	0	1.08239	10.1	1	1.32	1.32	0	0	0	0	0	0	0	0	0	0	0	91.7403	0.0000	0.0000	1.5536;
	741	129	-16	130	-16	1.09099	259.9	1	225	129	0	0	0	0	0	0	0	0	0	0	0	0.0000	14.4117	0.0000	1.6087;
	764	82	0	30	0	1.06965	105.4	1	82	82	0	0	0	0	0	0	0	0	0	0	0	91.3594	0.0000	0.0000	1.0841;
	793	1	0	0.5	0	1.04724	8.3	1	1	1	0	0	0	0	0	0	0	0	0	0	0	93.8724	0.0000	0.0000	1.0621;
	797	0	0	23	0	1.0493	71.9	0	0	0	0	0	0	0	0	0	0	0	0	0	0	0.0000	0.0000	0.0000	0.0000;
	797	0	0	23	0	1.0493	71.9	0	0	0	0	0	0	0	0	0	0	0	0	0	0	0.0000	0.0000	0.0000	0.0000;
	797	0	0	11	0	1.0493	32.9	0	0	0	0	0	0	0	0	0	0	0	0	0	0	0.0000	0.0000	0.0000	0.0000;
	797	0	0	10	0	1.0493	32.6	0	0	0	0	0	0	0	0	0	0	0	0	0	0	0.0000	0.0000	0.0000	0.0000;
	808	0	0	10	0	1.07568	125.4	0	125	84	0	0	0	0	0	0	0	0	0	0	0	0.0000	0.0000	0.0000	0.0000;
	809	92	0	10	0	1.09118	125.4	1	125	92	0	0	0	0	0	0	0	0	0	0	0	0.0000	22.6822	0.0000	1.7147;
	846	14.996	0	8.1	0	1.07424	33	1	14.996	14.996	0	0	0	0	0	0	0	0	0	0	0	92.4459	0.0000	0.0000	0.7630;
	846	14.996	0	8.1	0	1.07424	33	1	14.996	14.996	0	0	0	0	0	0	0	0	0	0	0	92.4459	0.0000	0.0000	0.7630;
	846	0	0	0	0	1.07424	19	0	0	0	0	0	0	0	0	0	0	0	0	0	0	0.0000	0.0000	0.0000	0.0000;
	846	0	0	0	0	1.07424	19	0	0	0	0	0	0	0	0	0	0	0	0	0	0	0.0000	0.0000	0.0000	0.0000;
	878	34.99	5.31522	41.2	0	1.08146	87.7	1	34.99	34.99	0	0	0	0	0	0	0	0	0	0	0	91.4588	0.0000	0.0000	0.0000;
	901	0	0	45	-10	1.07665	65.8	0	0	0	0	0	0	0	0	0	0	0	0	0	0	0.0000	0.0000	0.0000	0.0000;
	901	44.988	-8.16076	45	-10	1.07665	71.1	1	44.988	44.988	0	0	0	0	0	0	0	0	0	0	0	91.2640	0.0000	0.0000	0.0000;
	901	0	0	45	-10	1.07665	71.1	0	0	0	0	0	0	0	0	0	0	0	0	0	0	0.0000	0.0000	0.0000	0.0000;
	976	0	0	110	-40	1.08472	162.2	0	0	0	0	0	0	0	0	0	0	0	0	0	0	0.0000	0.0000	0.0000	0.0000;
	977	99.973	8.09625	110	-40	1.08973	162.2	1	99.973	99.973	0	0	0	0	0	0	0	0	0	0	0	91.3097	0.0000	0.0000	0.0000;
	981	0	0	0	0	1.08908	16.8	0	0	0	0	0	0	0	0	0	0	0	0	0	0	0.0000	0.0000	0.0000	0.0000;
	1002	225.568	-32	240	-32	1.09091	454.5	1	386	220	0	0	0	0	0	0	0	0	0	0	0	0.0000	0.0000	0.0000	0.0976;
	1003	0	0	227	-30	1.08396	434.1	0	370	220	0	0	0	0	0	0	0	0	0	0	0	0.0000	0.0000	0.0000	0.0000;
	1007	5.998	1.447	1.447	0	1.08685	7.1	1	5.998	5.998	0	0	0	0	0	0	0	0	0	0	0	91.5495	0.0000	0.0651	0.0000;
	1006	3.999	0.447	0.447	0	1.08685	4	1	3.999	3.999	0	0	0	0	0	0	0	0	0	0	0	91.5486	0.0000	0.0654	0.0000;
	1007	3.999	0.447	0.447	0	1.08685	5	1	3.999	3.999	0	0	0	0	0	0	0	0	0	0	0	91.5495	0.0000	0.0651	0.0000;
	1007	0	0	0	0	1.08685	6	0	0	0	0	0	0	0	0	0	0	0	0	0	0	0.0000	0.0000	0.0000	0.0000;
	1008	0	0	110	-40	1.08742	174.1	0	0	0	0	0	0	0	0	0	0	0	0	0	0	0.0000	0.0000	0.0000	0.0000;
	1014	14.996	0	4.8	0	1.08325	20.6	1	14.996	14.996	0	0	0	0	0	0	0	0	0	0	0	92.3810	0.0000	0.0000	0.0255;
	1014	0	0	0	0	1.08325	12.8	0	0	0	0	0	0	0	0	0	0	0	0	0	0	0.0000	0.0000	0.0000	0.0000;
	1014	0	0	0	0	1.08325	12.5	0	0	0	0	0	0	0	0	0	0	0	0	0	0	0.0000	0.0000	0.0000	0.0000;
	1016	0	0	0	0	1.08029	20	0	0	0	0	0	0	0	0	0	0	0	0	0	0	0.0000	0.0000	0.0000	0.0000;
	1016	0	0	0	0	1.08029	19	0	0	0	0	0	0	0	0	0	0	0	0	0	0	0.0000	0.0000	0.0000	0.0000;
	1025	11.997	18	18	9	1.07158	30	1	11.997	11.997	0	0	0	0	0	0	0	0	0	0	0	94.3556	0.0000	0.0130	0.0000;
	1026	0	0	18	9	1.07151	30	0	0	0	0	0	0	0	0	0	0	0	0	0	0	0.0000	0.0000	0.0000	0.0000;
	1027	0	0	14	10.5	1.07147	32.2	0	0	0	0	0	0	0	0	0	0	0	0	0	0	0.0000	0.0000	0.0000	0.0000;
	1114	0	0	37.5	16.8	1.08691	62.5	0	0	0	0	0	0	0	0	0	0	0	0	0	0	0.0000	0.0000	0.0000	0.0000;
	1115	0	0	37.5	7.5	1.0759	62.5	0	0	0	0	0	0	0	0	0	0	0	0	0	0	0.0000	0.0000	0.0000	0.0000;
	1114	39.989	7.5	37.5	7.5	1.08691	62.5	1	39.989	39.989	0	0	0	0	0	0	0	0	0	0	0	91.9086	0.0000	0.0000	0.0133;
	1116	0	0	37.5	16.8	1.08062	62.5	0	0	0	0	0	0	0	0	0	0	0	0	0	0	0.0000	0.0000	0.0000	0.0000;
	1153	16.995	0	5.251	0	1.07018	30.5	1	16.995	16.995	0	0	0	0	0	0	0	0	0	0	0	93.1565	0.0000	0.0000	0.0103;
	1153	0	0	0	0	1.07018	6	0	0	0	0	0	0	0	0	0	0	0	0	0	0	0.0000	0.0000	0.0000	0.0000;
	1154	16.995	0	5.251	0	1.07027	30.5	1	16.995	16.995	0	0	0	0	0	0	0	0	0	0	0	93.1437	0.0000	0.0000	0.0117;
	1154	0	0	0	0	1.07027	25	0	0	0	0	0	0	0	0	0	0	0	0	0	0	0.0000	0.0000	0.0000	0.0000;
	1155	15.996	0	5.25	0	1.07285	30.5	1	15.996	15.996	0	0	0	0	0	0	0	0	0	0	0	92.7739	0.0000	0.0000	0.1178;
	1155	0	0	0	0	1.07285	6	0	0	0	0	0	0	0	0	0	0	0	0	0	0	0.0000	0.0000	0.0000	0.0000;
	1180	59.984	15.5493	52.5	0	1.08018	87.5	1	59.984	59.984	0	0	0	0	0	0	0	0	0	0	0	91.6538	0.0000	0.0000	0.0000;
	1181	0	0	52.5	0	1.08122	87.5	0	0	0	0	0	0	0	0	0	0	0	0	0	0	0.0000	0.0000	0.0000	0.0000;
	1181	0	0	42	16.8	1.08122	65.3	0	0	0	0	0	0	0	0	0	0	0	0	0	0	0.0000	0.0000	0.0000	0.0000;
	1189	49.986	0	0	0	1.07992	50	1	49.986	49.986	0	0	0	0	0	0	0	0	0	0	0	91.7678	0.0000	0.0267	0.0000;
	1247	9.997	0.854507	2	0	1.07484	16.7	1	9.997	9.997	0	0	0	0	0	0	0	0	0	0	0	91.8830	0.0000	0.0000	0.0000;
	1247	0	0	0	0	1.07484	24	0	0	0	0	0	0	0	0	0	0	0	0	0	0	0.0000	0.0000	0.0000	0.0000;
	1248	0	0	0	0	1.07711	14.6	0	0	0	0	0	0	0	0	0	0	0	0	0	0	0.0000	0.0000	0.0000	0.0000;
	1248	0	0	0	0	1.07711	14.6	0	0	0	0	0	0	0	0	0	0	0	0	0	0	0.0000	0.0000	0.0000	0.0000;
...
];

%% branch data
%	fbus	tbus	r	x	b	rateA	rateB	rateC	ratio	angle	status	angmin	angmax	Pf	Qf	Pt	Qt	mu_Sf	mu_St	mu_angmin	mu_angmax
mpc.branch = [
	7	8	0.00064	0.0305	0	400	400	400	1.0435	-0.6	1	-360	360	-123.8322	-24.5064	123.9277	29.0557	0.0000	0.0000	0.0000	0.0000;
	26	28	0.00036	0.02519	0	500	500	500	1.0911	0	1	-360	360	125.6517	-117.4898	-125.5484	124.7145	0.0000	0.0000	0.0000	0.0000;
	27	29	0.00036	0.02519	0	500	500	500	1.0759	0	1	-360	360	20.7686	-64.2700	-20.7531	65.3548	0.0000	0.0000	0.0000	0.0000;
	39	41	0.00034	0.02097	0	500	500	500	1.0793	0	1	-360	360	-9.4688	-64.0902	9.4824	64.9267	0.0000	0.0000	0.0000	0.0000;
	42	45	0.00034	0.02097	0	500	500	500	1.0296	0	1	-360	360	8.4574	18.3353	-8.4562	-18.2583	0.0000	0.0000	0.0000	0.0000;
	54	56	0.00081	0.03	0	400	400	400	1.0501	0	1	-360	360	9.6217	-2.1432	-9.6210	2.1699	0.0000	0.0000	0.0000	0.0000;
	63	65	0.00015	0.01071	0	1250	1250	1250	0.9673	0	1	-360	360	0.0688	229.7148	-0.0000	-224.8020	0.0000	0.0000	0.0000	0.0000;
	64	65	0.00015	0.01071	0	1250	1250	1250	0.9665	0	0	-360	360	0.0000	0.0000	0.0000	0.0000	0.0000	0.0000	0.0000	0.0000;
	90	92	0.00075	0.02444	-0.00832	330	330	330	1.0474	0	1	-360	360	-104.6764	13.4642	104.7520	-10.0839	0.0000	0.0000	0.0000	0.0000;
	91	93	0.00075	0.02469	-0.008	330	330	330	1.0445	0	1	-360	360	-103.7203	25.9101	103.7974	-22.4890	0.0000	0.0000	0.0000	0.0000;
	125	128	0.0005	0.02875	-0.016	400	400	400	1.1172	0	1	-360	360	-85.0431	-162.9909	85.2194	174.7507	0.0000	0.0000	0.0000	0.0000;
	149	150	0.00064	0.0305	0	400	400	400	1.077	0	1	-360	360	161.5634	-51.6123	-161.3857	60.0772	0.0000	0.0000	0.0000	0.0000;
	155	157	0.000232	0.023	0	500	500	500	1.0887	0	1	-360	360	-70.5638	-23.1160	70.5762	24.3460	0.0000	0.0000	0.0000	0.0000;
	156	158	0.000232	0.023	0	500	500	500	1.0887	0	1	-360	360	-70.4654	-22.9090	70.4777	24.1338	0.0000	0.0000	0.0000	0.0000;
	169	171	0.00035	0.02375	0	500	500	500	1.0894	0	1	-360	360	20.6552	-44.5831	-20.6470	45.1375	0.0000	0.0000	0.0000	0.0000;
	183	184	0.00059	0.030919	0	400	400	400	1.0584	0	1	-360	360	-26.9450	19.2682	26.9510	-18.9549	0.0000	0.0000	0.0000	0.0000;
	190	192	0.0004	0.03	0	500	500	500	1.0855	3.6	1	-360	360	89.0660	-49.5506	-89.0253	52.6031	0.0000	0.0000	0.0000	0.0000;
	2727	157	0.00031	0.00338	0.0992	1386	1386	1386	0	0	1	-360	360	88.1488	-12.2330	-88.1255	2.1473	0.0000	0.0000	0.0000	0.0000;
	2727	158	0.00031	0.00338	0.0992	1386	1386	1386	0	0	1	-360	360	85.8152	-10.9631	-85.7932	0.8642	0.0000	0.0000	0.0000	0.0000;
	2728	68	0.014341	0.083531	0.126034	385	385	385	0	0	1	-360	360	80.0000	-62.8400	-78.7904	55.2004	0.0000	0.0000	0.0000	0.0000;
	2726	76	0.01219	0.070659	0.117418	412	412	412	0	0	1	-360	360	-35.5004	-9.4040	35.6340	-3.4714	0.0000	0.0000	0.0000	0.0000;
	2726	105	0.011781	0.07087	0.116838	412	412	412	0	0	1	-360	360	-147.9996	-1.2510	150.2348	0.9751	0.0000	0.0000	0.0000	0.0000;
	127	2725	0.001525	0.016837	0.50576	1386	1386	1386	0	0	1	-360	360	289.6819	-18.3436	-288.4780	-21.9320	0.0000	0.0000	0.0000	0.0000;
	2729	148	0.001651	0.015909	0.046948	316	316	316	0	0	1	-360	360	91.0385	-4.4927	-90.9248	-0.0612	0.0000	0.0000	0.0000	0.0000;
	2729	149	0.001651	0.015909	0.046948	316	316	316	0	0	1	-360	360	92.4955	-5.1829	-92.3782	0.6643	0.0000	0.0000	0.0000	0.0000;
	2730	47	0.00188	0.02287	0.6432	831	831	831	0	0	1	-360	360	-117.7105	-71.2178	117.9817	5.8266	0.0000	0.0000	0.0000	0.0000;
	2730	48	0.00188	0.02287	0.6432	831	831	831	0	0	1	-360	360	-117.3745	-71.2692	117.6443	5.8616	0.0000	0.0000	0.0000	0.0000;
	82	2724	0.002769	0.031162	0.89824	1386	1386	1386	0	0	1	-360	360	189.4520	-42.3138	-188.5300	-43.7340	0.0000	0.0000	0.0000	0.0000;
	42	23	0.01345	0.081141	0.141134	339	339	339	0	0	1	-360	360	80.9112	1.1067	-80.1522	-12.8887	0.0000	0.0000	0.0000	0.0000;
	26	90	0.009091	0.062401	0.111417	453	453	453	0	0	1	-360	360	163.0555	-9.7889	-161.0870	9.7131	0.0000	0.0000	0.0000	0.0000;
	27	91	0.00868	0.06405	0.096994	427	427	427	0	0	1	-360	360	111.8605	-5.7155	-110.9749	0.4306	0.0000	0.0000	0.0000	0.0000;
	146	30	0.016961	0.123659	0.196988	316	316	316	0	0	1	-360	360	47.0203	2.6468	-46.6802	-23.4821	0.0000	0.0000	0.0000	0.0000;
	135	33	0.00512	0.02618	0.029621	301	301	301	0	0	1	-360	360	-59.7921	18.3410	59.9603	-21.0662	0.0000	0.0000	0.0000	0.0000;
	134	20	0.01068	0.061961	0.094961	385	385	385	0	0	1	-360	360	-91.8018	13.0786	92.5755	-20.0974	0.0000	0.0000	0.0000	0.0000;
	164	21	0.014651	0.105891	0.170852	316	316	316	0	0	1	-360	360	52.5358	2.6392	-52.1816	-20.4302	0.0000	0.0000	0.0000	0.0000;
	40	109	0.01488	0.08161	0.114805	314	314	314	0	0	1	-360	360	-12.2235	12.3867	12.2874	-25.9460	0.0000	0.0000	0.0000	0.0000;
	39	91	0.011159	0.07231	0.103673	324	324	324	0	0	1	-360	360	-74.8496	17.2411	75.4103	-26.2375	0.0000	0.0000	0.0000	0.0000;
	178	83	0.005517	0.059484	0.170775	316	316	316	0	0	1	-360	360	-18.4998	-4.7562	18.5166	-16.0636	0.0000	0.0000	0.0000	0.0000;
	203	165	0.01176	0.068289	0.102802	324	324	324	0	0	1	-360	360	-176.3179	-2.2636	179.4656	8.3419	0.0000	0.0000	0.0000	0.0000;
	194	165	0.016818	0.089091	0.129935	358	358	358	0	0	1	-360	360	-151.8920	18.4926	155.2483	-16.3171	0.0000	0.0000	0.0000	0.0000;
	193	164	0.013843	0.087025	0.134842	383	383	383	0	0	1	-360	360	-157.3422	14.5843	160.2802	-12.3075	0.0000	0.0000	0.0000	0.0000;
	207	167	0.01676	0.097169	0.148685	269	269	269	0	0	1	-360	360	-76.6690	2.9086	77.4962	-16.3082	0.0000	0.0000	0.0000	0.0000;
	42	10	0.01269	0.074979	0.130196	351	351	351	0	0	1	-360	360	85.6346	-1.3025	-84.8388	-9.1245	0.0000	0.0000	0.0000	0.0000;
	198	18	0.014091	0.10413	0.15972	316	316	316	0	0	1	-360	360	-65.5782	-2.1061	66.1122	-12.3458	0.0000	0.0000	0.0000	0.0000;
	100	54	0.003719	0.0438	0.100962	457	457	457	0	0	1	-360	360	-41.4439	5.2317	41.5006	-16.7631	0.0000	0.0000	0.0000	0.0000;
	162	82	0.00194	0.02056	0.51584	1178	1178	1178	0	0	1	-360	360	-151.6198	-14.6729	152.0368	-36.5318	0.0000	0.0000	0.0000	0.0000;
	44	9	0.0015	0.01506	0.4032	1386	1386	1386	0	0	1	-360	360	204.6783	10.7691	-204.0930	-48.9986	0.0000	0.0000	0.0000	0.0000;
	185	150	0.00294	0.03463	0.9216	693	693	693	0	0	1	-360	360	-303.9216	-3.5531	306.5132	-64.5414	0.0000	0.0000	0.0000	0.0000;
	121	56	0.00169	0.01994	0.50624	831	831	831	0	0	1	-360	360	-18.0382	-19.9642	18.0441	-35.4098	0.0000	0.0000	0.0000	0.0000;
	29	93	0.00137	0.01625	0.41184	1386	1386	1386	0	0	1	-360	360	201.6293	-59.7545	-201.1017	20.8870	0.0000	0.0000	0.0000	0.0000;
	28	123	0.00231	0.02769	0.70144	1386	1386	1386	0	0	1	-360	360	253.1809	-44.3135	-251.8240	-15.8774	0.0000	0.0000	0.0000	0.0000;
	25	192	0.00207	0.02474	0.664	1386	1386	1386	0	0	1	-360	360	372.7822	6.8227	-370.0821	-45.2758	0.0000	0.0000	0.0000	0.0000;
	120	63	0.0015	0.01788	0.4512	831	831	831	0	0	1	-360	360	73.5364	25.5690	-73.4278	-73.2927	0.0000	0.0000	0.0000	0.0000;
	122	63	0.00469	0.05544	1.4048	831	831	831	0	0	0	-360	360	0.0000	0.0000	0.0000	0.0000	0.0000	0.0000	0.0000	0.0000;
	82	31	0.00331	0.03425	0.85888	977	977	977	0	0	1	-360	360	-81.9980	-60.7472	82.2106	-30.4167	0.0000	0.0000	0.0000	0.0000;
	92	28	0.00219	0.02369	0.59584	1178	1178	1178	0	0	1	-360	360	-136.8646	-1.8959	137.2567	-59.1493	0.0000	0.0000	0.0000	0.0000;
	12	4	0.01674	0.09711	0.144232	427	427	427	0	0	1	-360	360	-136.5227	-6.0973	139.2408	4.8932	0.0000	0.0000	0.0000	0.0000;
	30	11	0.0057	0.0407	0.06021	316	316	316	0	0	1	-360	360	-10.3324	11.5832	10.3489	-18.4121	0.0000	0.0000	0.0000	0.0000;
	24	4	0.004419	0.032229	0.049852	383	383	383	0	0	1	-360	360	63.4276	4.3521	-63.2793	-9.3048	0.0000	0.0000	0.0000	0.0000;
	17	7	0.014591	0.11219	0.165528	383	383	383	0	0	1	-360	360	-64.3397	-2.3683	64.8687	-12.7591	0.0000	0.0000	0.0000	0.0000;
	21	10	0.01211	0.087419	0.140166	316	316	316	0	0	1	-360	360	-3.9877	5.5224	4.0088	-21.6241	0.0000	0.0000	0.0000	0.0000;
	26	5	0.009773	0.050516	0.088959	377	377	377	0	0	1	-360	360	157.8139	-8.0706	-155.8317	7.4922	0.0000	0.0000	0.0000	0.0000;
	17	3	0.01068	0.07895	0.245194	274	274	274	0	0	1	-360	360	51.6993	-28.6704	-51.4330	2.1303	0.0000	0.0000	0.0000	0.0000;
	26	19	0.0057	0.039521	0.075533	440	440	440	0	0	1	-360	360	173.5048	-3.3576	-172.1076	3.8313	0.0000	0.0000	0.0000	0.0000;
	27	20	0.0057	0.039521	0.075533	440	440	440	0	0	1	-360	360	97.3916	1.8235	-96.9488	-7.9599	0.0000	0.0000	0.0000	0.0000;
	13	6	0.00525	0.03988	0.061952	316	316	316	0	0	1	-360	360	-4.6469	-21.6824	4.6629	14.6450	0.0000	0.0000	0.0000	0.0000;
	13	12	2.1e-05	0.000207	0	316	316	316	0	0	1	-360	360	-45.0182	-6.0516	45.0186	6.0553	0.0000	0.0000	0.0000	0.0000;
	32	13	0.00093	0.00651	0.011132	316	316	316	0	0	1	-360	360	-49.6387	-28.8240	49.6652	27.7340	0.0000	0.0000	0.0000	0.0000;
	23	11	0.00205	0.01326	0.022429	385	385	385	0	0	1	-360	360	-11.0492	-20.3503	11.0579	17.8377	0.0000	0.0000	0.0000	0.0000;
	33	5	0.007831	0.043	0.04962	301	301	301	0	0	1	-360	360	-67.9618	13.4642	68.2787	-17.7117	0.0000	0.0000	0.0000	0.0000;
	19	4	0.00293	0.01599	0.024781	324	324	324	0	0	1	-360	360	73.9596	4.0106	-73.8266	-6.2790	0.0000	0.0000	0.0000	0.0000;
	26	1	0.00155	0.01169	0.018198	633	633	633	0	0	1	-360	360	71.7962	78.8414	-71.6505	-79.9586	0.0000	0.0000	0.0000	0.0000;
	27	2	0.00155	0.01169	0.018198	633	633	633	0	0	1	-360	360	-2.6605	10.4140	2.6623	-12.6300	0.0000	0.0000	0.0000	0.0000;
	27	24	0.003841	0.028531	0.045883	392	392	392	0	0	1	-360	360	104.4949	3.6610	-104.1516	-6.7127	0.0000	0.0000	0.0000	0.0000;
	25	9	0.00298	0.03418	0.93504	831	831	831	0	0	1	-360	360	-72.8722	-53.4349	73.0191	-46.1297	0.0000	0.0000	0.0000	0.0000;
	28	25	0.00358	0.04262	1.0944	1386	1386	1386	0	0	1	-360	360	372.7651	-49.0134	-368.2055	-15.5146	0.0000	0.0000	0.0000	0.0000;
	14	29	0.00336	0.03977	1.02163	1316	1316	1316	0	0	1	-360	360	-284.8749	-38.3288	287.4228	-42.1393	0.0000	0.0000	0.0000	0.0000;
	8	15	0.00299	0.03675	0.9184	1150	1150	1150	0	0	1	-360	360	69.0528	-76.6826	-68.9018	-21.9682	0.0000	0.0000	0.0000	0.0000;
	8	14	0.00112	0.01329	0.341248	1150	1150	1150	0	0	1	-360	360	-144.5928	41.9870	144.8462	-75.8363	0.0000	0.0000	0.0000	0.0000;
	31	29	0.00075	0.009	0.22848	1150	1150	1150	0	0	1	-360	360	-206.1500	24.2332	206.4503	-45.6133	0.0000	0.0000	0.0000	0.0000;
	62	58	0.010479	0.060969	0.092047	269	269	269	0	0	1	-360	360	-8.3877	-4.6782	8.3940	-6.2216	0.0000	0.0000	0.0000	0.0000;
	60	55	0.00882	0.065641	0.100662	274	274	274	0	0	1	-360	360	-21.7506	6.2209	21.7960	-18.0737	0.0000	0.0000	0.0000	0.0000;
	67	34	0.011219	0.065581	0.098349	274	274	274	0	0	1	-360	360	-17.4212	-16.7108	17.4599	4.9087	0.0000	0.0000	0.0000	0.0000;
	50	34	0.01163	0.07031	0.105802	341	341	341	0	0	1	-360	360	7.1450	-22.6377	-7.1148	9.8971	0.0000	0.0000	0.0000	0.0000;
	58	42	0.00545	0.040211	0.066986	404	404	404	0	0	1	-360	360	-8.3866	12.9990	8.4030	-20.7966	0.0000	0.0000	0.0000	0.0000;
	59	43	0.00545	0.040211	0.066986	404	404	404	0	0	1	-360	360	-8.6994	13.1409	8.7163	-20.9357	0.0000	0.0000	0.0000	0.0000;
	59	34	0.00837	0.04868	0.073481	379	379	379	0	0	1	-360	360	-19.4904	-45.1944	19.6345	37.1386	0.0000	0.0000	0.0000	0.0000;
	68	51	0.003159	0.02076	0.03146	385	385	385	0	0	1	-360	360	47.6139	-26.8234	-47.5380	23.5244	0.0000	0.0000	0.0000	0.0000;
	51	38	0.006979	0.051961	0.079666	316	316	316	0	0	1	-360	360	22.9263	-7.6685	-22.8956	-1.7475	0.0000	0.0000	0.0000	0.0000;
	36	55	0.00374	0.027831	0.042689	274	274	274	0	0	1	-360	360	-22.6564	-2.2209	22.6724	-2.8008	0.0000	0.0000	0.0000	0.0000;
	37	35	0.00769	0.057271	0.087894	316	316	316	0	0	1	-360	360	20.0628	23.5719	-19.9838	-33.4028	0.0000	0.0000	0.0000	0.0000;
	54	37	0.00556	0.04145	0.063598	383	383	383	0	0	1	-360	360	14.9894	-3.7551	-14.9791	-3.8256	0.0000	0.0000	0.0000	0.0000;
	67	36	0.004521	0.03368	0.051691	392	392	392	0	0	1	-360	360	-5.1192	13.2712	5.1302	-19.4370	0.0000	0.0000	0.0000	0.0000;
	67	66	0.00151	0.008781	0.013165	341	341	341	0	0	1	-360	360	22.5404	3.4396	-22.5339	-4.9987	0.0000	0.0000	0.0000	0.0000;
	61	42	0.00574	0.042831	0.065727	404	404	404	0	0	1	-360	360	-19.8604	12.8312	19.8930	-20.3557	0.0000	0.0000	0.0000	0.0000;
	62	43	0.00707	0.045409	0.069309	314	314	314	0	0	1	-360	360	-18.7530	11.9232	18.7893	-19.8814	0.0000	0.0000	0.0000	0.0000;
	61	39	0.01213	0.062151	0.093712	314	314	314	0	0	1	-360	360	-9.6480	-33.8913	9.7394	23.0515	0.0000	0.0000	0.0000	0.0000;
	60	40	0.002479	0.017979	0.027588	316	316	316	0	0	1	-360	360	-45.7702	-18.6468	45.8188	15.6296	0.0000	0.0000	0.0000	0.0000;
	46	39	0.002401	0.01494	0.022525	341	341	341	0	0	1	-360	360	-40.9503	1.6680	40.9833	-4.2219	0.0000	0.0000	0.0000	0.0000;
	49	45	0.00167	0.0189	0.54176	1150	1150	1150	0	0	1	-360	360	9.3221	-46.4655	-9.3165	-12.9835	0.0000	0.0000	0.0000	0.0000;
	57	53	0.00109	0.01277	0.34176	1150	1150	1150	0	0	1	-360	360	61.6274	-39.1224	-61.5854	2.1608	0.0000	0.0000	0.0000	0.0000;
	41	57	0.002259	0.026439	0.70784	1150	1150	1150	0	0	1	-360	360	-9.4824	-64.9267	9.4992	-11.7924	0.0000	0.0000	0.0000	0.0000;
	63	57	0.00094	0.01097	0.29376	1393	1393	1393	0	0	1	-360	360	-152.2099	-81.2289	152.4496	52.1480	0.0000	0.0000	0.0000	0.0000;
	47	64	0.00113	0.01406	0.37488	1386	1386	1386	0	0	1	-360	360	-242.1672	12.3254	242.7925	-44.9486	0.0000	0.0000	0.0000	0.0000;
	52	44	0.00176	0.02144	0.57344	1150	1150	1150	0	0	1	-360	360	-43.0642	-36.1659	43.0943	-26.5280	0.0000	0.0000	0.0000	0.0000;
	96	125	0.004876	0.033616	0.059609	404	404	404	0	0	1	-360	360	11.5511	3.5107	-11.5437	-10.6629	0.0000	0.0000	0.0000	0.0000;
	75	106	0.01093	0.059194	0.08439	246	246	246	0	0	1	-360	360	-0.1418	4.0389	0.1493	-14.0715	0.0000	0.0000	0.0000	0.0000;
	106	94	0.001942	0.013926	0.022845	404	404	404	0	0	1	-360	360	58.0953	-7.3888	-58.0396	5.0745	0.0000	0.0000	0.0000	0.0000;
	79	85	0.004318	0.029752	0.05264	316	316	316	0	0	1	-360	360	-7.1381	-13.7767	7.1441	7.5651	0.0000	0.0000	0.0000	0.0000;
	131	130	0.000661	0.004959	0.007579	379	379	379	0	0	1	-360	360	47.6024	-20.7543	-47.5878	19.9468	0.0000	0.0000	0.0000	0.0000;
	107	131	0.005372	0.040393	0.060055	379	379	379	0	0	1	-360	360	-89.0030	-16.7147	89.3689	12.2664	0.0000	0.0000	0.0000	0.0000;
	91	131	0.000826	0.005248	0.008683	301	301	301	0	0	1	-360	360	137.1001	-8.7212	-136.9714	8.4878	0.0000	0.0000	0.0000	0.0000;
	100	119	0.015888	0.087603	0.116818	314	314	314	0	0	1	-360	360	1.1516	8.2344	-1.1207	-22.0592	0.0000	0.0000	0.0000	0.0000;
	81	113	0.002169	0.014587	0.025749	269	269	269	0	0	1	-360	360	2.0834	2.6698	-2.0830	-5.7093	0.0000	0.0000	0.0000	0.0000;
	116	101	0.017727	0.116777	0.163611	246	246	246	0	0	1	-360	360	9.8393	-21.8969	-9.8026	2.5228	0.0000	0.0000	0.0000	0.0000;
	126	74	0.00593	0.04093	0.072145	404	404	404	0	0	1	-360	360	14.3629	0.9211	-14.3514	-9.5140	0.0000	0.0000	0.0000	0.0000;
	108	90	0.003905	0.028471	0.044983	383	383	383	0	0	1	-360	360	-152.0511	-2.1631	152.8049	2.2417	0.0000	0.0000	0.0000	0.0000;
	118	79	0.008161	0.042417	0.061197	356	356	356	0	0	1	-360	360	-12.6390	-1.0577	12.6505	-6.1311	0.0000	0.0000	0.0000	0.0000;
	119	78	0.008161	0.042417	0.061197	356	356	356	0	0	1	-360	360	-39.7561	5.7423	39.8711	-12.3901	0.0000	0.0000	0.0000	0.0000;
	79	76	0.005186	0.038388	0.058748	453	453	453	0	0	1	-360	360	207.2799	-4.2878	-205.3986	11.3010	0.0000	0.0000	0.0000	0.0000;
	78	73	0.002128	0.014029	0.022603	301	301	301	0	0	1	-360	360	118.3435	-6.8588	-118.0910	5.8518	0.0000	0.0000	0.0000	0.0000;
	114	78	0.004628	0.027748	0.046115	324	324	324	0	0	1	-360	360	-50.6060	1.5739	50.7071	-6.4190	0.0000	0.0000	0.0000	0.0000;
	103	72	0.011219	0.070744	0.115705	246	246	246	0	0	1	-360	360	-87.1542	2.5639	87.8907	-11.5173	0.0000	0.0000	0.0000	0.0000;
	110	117	0.006012	0.041467	0.073636	383	383	383	0	0	1	-360	360	-40.5635	-7.2590	40.6478	-0.8664	0.0000	0.0000	0.0000	0.0000;
	91	69	0.002066	0.012789	0.020551	269	269	269	0	0	1	-360	360	36.4813	-3.0043	-36.4586	0.6578	0.0000	0.0000	0.0000	0.0000;
	86	90	0.001364	0.009731	0.016243	453	453	453	0	0	1	-360	360	-78.5900	12.3424	78.6616	-13.7990	0.0000	0.0000	0.0000	0.0000;
	129	87	0.000579	0.004112	0.007008	404	404	404	0	0	1	-360	360	-45.6107	3.1682	45.6207	-3.9459	0.0000	0.0000	0.0000	0.0000;
	132	76	0.000847	0.00624	0.009544	457	457	457	0	0	1	-360	360	-137.0000	7.8680	137.1367	-7.9763	0.0000	0.0000	0.0000	0.0000;
	133	77	0.000847	0.00626	0.009477	457	457	457	0	0	1	-360	360	-137.0000	7.9428	137.1367	-8.0398	0.0000	0.0000	0.0000	0.0000;
	102	77	0.001591	0.011116	0.019128	453	453	453	0	0	1	-360	360	104.6588	-9.3750	-104.5090	8.1846	0.0000	0.0000	0.0000	0.0000;
	125	104	0.003141	0.021591	0.038391	404	404	404	0	0	1	-360	360	96.2519	13.0844	-96.0044	-15.9869	0.0000	0.0000	0.0000	0.0000;
	126	111	0.004545	0.03157	0.055312	316	316	316	0	0	1	-360	360	70.6429	22.1629	-70.4302	-27.2896	0.0000	0.0000	0.0000	0.0000;
	104	84	0.001446	0.009917	0.017598	316	316	316	0	0	1	-360	360	-0.2121	7.5460	0.2130	-9.6380	0.0000	0.0000	0.0000	0.0000;
	105	95	0.003822	0.026674	0.046154	316	316	316	0	0	1	-360	360	-27.5461	10.7726	27.5762	-16.0561	0.0000	0.0000	0.0000	0.0000;
	112	80	0.007769	0.041281	0.063907	269	269	269	0	0	1	-360	360	6.6883	-3.9623	-6.6854	-3.5798	0.0000	0.0000	0.0000	0.0000;
	89	78	0.004463	0.030413	0.048671	246	246	246	0	0	1	-360	360	-3.8289	-7.0569	3.8301	1.3129	0.0000	0.0000	0.0000	0.0000;
	117	108	0.005888	0.035062	0.052349	246	246	246	0	0	1	-360	360	-30.4584	-14.1680	30.5105	8.2385	0.0000	0.0000	0.0000	0.0000;
	109	99	0.003161	0.023409	0.036165	316	316	316	0	0	1	-360	360	41.8213	7.6339	-41.7726	-11.5919	0.0000	0.0000	0.0000	0.0000;
	116	79	0.001839	0.012603	0.022399	316	316	316	0	0	1	-360	360	51.6833	-1.2192	-51.6419	-1.1521	0.0000	0.0000	0.0000	0.0000;
	107	88	0.001715	0.009607	0.014239	301	301	301	0	0	1	-360	360	69.0138	27.3567	-68.9336	-28.5938	0.0000	0.0000	0.0000	0.0000;
	98	79	0.003409	0.024421	0.039969	246	246	246	0	0	1	-360	360	30.1785	6.1077	-30.1503	-10.6523	0.0000	0.0000	0.0000	0.0000;
	117	78	0.001839	0.012603	0.02239	316	316	316	0	0	1	-360	360	-40.2184	16.2648	40.2482	-18.7128	0.0000	0.0000	0.0000	0.0000;
	83	97	0.005702	0.041488	0.066172	404	404	404	0	0	1	-360	360	24.2504	11.9584	-24.2111	-19.7421	0.0000	0.0000	0.0000	0.0000;
	124	118	0.004587	0.024628	0.036165	314	314	314	0	0	1	-360	360	-25.5966	-11.4908	25.6255	7.3752	0.0000	0.0000	0.0000	0.0000;
	124	110	0.002149	0.013327	0.022109	246	246	246	0	0	1	-360	360	-11.5553	-4.0080	11.5579	1.4193	0.0000	0.0000	0.0000	0.0000;
	100	71	0.000785	0.004876	0.00726	269	269	269	0	0	1	-360	360	0.0000	-0.8796	0.0000	-0.0000	0.0000	0.0000	0.0000	0.0000;
	101	70	0.000785	0.004876	0.007241	269	269	269	0	0	1	-360	360	0.0000	-0.8773	0.0000	-0.0000	0.0000	0.0000	0.0000	0.0000;
	93	127	0.002413	0.027544	0.767968	831	831	831	0	0	1	-360	360	129.4169	13.5811	-128.9811	-91.6757	0.0000	0.0000	0.0000	0.0000;
	82	127	0.002131	0.024319	0.67744	1386	1386	1386	0	0	1	-360	360	87.9212	-12.2112	-87.7568	-58.4975	0.0000	0.0000	0.0000	0.0000;
	122	115	0.000913	0.0104	0.289888	1150	1150	1150	0	0	1	-360	360	40.0477	44.8588	-40.0034	-75.7004	0.0000	0.0000	0.0000	0.0000;
	123	121	0.003119	0.035631	0.991072	831	831	831	0	0	1	-360	360	107.5345	-73.1329	-107.1925	-31.2104	0.0000	0.0000	0.0000	0.0000;
	115	128	0.000919	0.010512	0.292928	1150	1150	1150	0	0	1	-360	360	-54.5815	41.3416	54.6348	-72.0517	0.0000	0.0000	0.0000	0.0000;
	173	156	0.01545	0.073349	0.126614	427	427	427	0	0	1	-360	360	-112.6408	7.8269	114.2998	-15.3096	0.0000	0.0000	0.0000	0.0000;
	174	155	0.01545	0.073349	0.126614	427	427	427	0	0	1	-360	360	-112.4183	7.8022	114.0706	-15.3160	0.0000	0.0000	0.0000	0.0000;
	176	155	0.01457	0.07955	0.14007	324	324	324	0	0	1	-360	360	-49.3498	5.7606	49.6629	-21.2178	0.0000	0.0000	0.0000	0.0000;
	177	156	0.01457	0.07955	0.14007	324	324	324	0	0	1	-360	360	-49.4698	5.7786	49.7844	-21.2281	0.0000	0.0000	0.0000	0.0000;
	176	144	0.006031	0.04401	0.069793	316	316	316	0	0	1	-360	360	27.5868	-2.2634	-27.5493	-6.0237	0.0000	0.0000	0.0000	0.0000;
	165	140	0.011031	0.08057	0.124127	404	404	404	0	0	1	-360	360	72.3929	-17.3543	-71.9068	5.8518	0.0000	0.0000	0.0000	0.0000;
	137	155	0.005831	0.04231	0.070664	383	383	383	0	0	1	-360	360	-66.9047	13.3964	67.1320	-20.4050	0.0000	0.0000	0.0000	0.0000;
	170	173	0.01849	0.095599	0.159139	305	305	305	0	0	1	-360	360	-58.8398	15.6002	59.4583	-31.7492	0.0000	0.0000	0.0000	0.0000;
	152	174	0.010581	0.053	0.088475	385	385	385	0	0	1	-360	360	-69.9204	12.1866	70.3761	-20.5671	0.0000	0.0000	0.0000	0.0000;
	154	156	0.012521	0.091359	0.145394	453	453	453	0	0	1	-360	360	-78.5011	7.0239	79.1558	-20.0517	0.0000	0.0000	0.0000	0.0000;
	136	137	0.00506	0.036539	0.063598	305	305	305	0	0	1	-360	360	-35.2642	3.0459	35.3173	-10.4798	0.0000	0.0000	0.0000	0.0000;
	148	143	0.01043	0.077891	0.122065	383	383	383	0	0	1	-360	360	18.0553	-18.2410	-18.0167	3.7738	0.0000	0.0000	0.0000	0.0000;
	153	181	0.007702	0.056917	0.086733	316	316	316	0	0	1	-360	360	33.6928	9.9993	-33.6068	-19.9105	0.0000	0.0000	0.0000	0.0000;
	153	180	0.002256	0.016674	0.02541	333	333	333	0	0	1	-360	360	-116.6199	0.2239	116.8700	-1.5000	0.0000	0.0000	0.0000	0.0000;
	175	147	0.009147	0.089554	0.215196	246	246	246	0	0	1	-360	360	-45.1188	-14.2406	45.2746	-10.1018	0.0000	0.0000	0.0000	0.0000;
	175	169	0.00244	0.01318	0.021296	341	341	341	0	0	0	-360	360	0.0000	0.0000	0.0000	0.0000	0.0000	0.0000	0.0000	0.0000;
	169	140	0.00355	0.02593	0.041237	404	404	404	0	0	1	-360	360	-41.2173	29.2280	41.2956	-33.6902	0.0000	0.0000	0.0000	0.0000;
	170	167	0.01312	0.076219	0.116644	324	324	324	0	0	1	-360	360	92.7885	-20.2337	-91.8499	11.3688	0.0000	0.0000	0.0000	0.0000;
	169	152	0.009341	0.05225	0.087701	305	305	305	0	0	1	-360	360	-36.6061	21.7334	36.7640	-31.5229	0.0000	0.0000	0.0000	0.0000;
	146	135	0.006141	0.032521	0.052456	356	356	356	0	0	1	-360	360	-114.5280	13.6565	115.2091	-16.3970	0.0000	0.0000	0.0000	0.0000;
	147	134	0.00438	0.03188	0.050723	453	453	453	0	0	1	-360	360	-118.1800	8.5705	118.6912	-10.9878	0.0000	0.0000	0.0000	0.0000;
	164	147	0.000479	0.00331	0.005711	404	404	404	0	0	1	-360	360	-64.0287	56.1439	64.0575	-56.6355	0.0000	0.0000	0.0000	0.0000;
	165	146	0.000479	0.00331	0.005711	404	404	404	0	0	1	-360	360	-71.6938	60.2628	71.7286	-60.7128	0.0000	0.0000	0.0000	0.0000;
	154	143	0.010539	0.076859	0.122355	316	316	316	0	0	1	-360	360	46.7598	-5.6885	-46.5718	-7.8836	0.0000	0.0000	0.0000	0.0000;
	159	148	0.00469	0.034651	0.053821	383	383	383	0	0	1	-360	360	-49.6987	9.6926	49.8013	-15.4155	0.0000	0.0000	0.0000	0.0000;
	149	141	0.006469	0.0413	0.069212	383	383	383	0	0	1	-360	360	42.4971	-3.1298	-42.3999	-4.5495	0.0000	0.0000	0.0000	0.0000;
	168	141	0.00105	0.007211	0.01028	316	316	316	0	0	1	-360	360	-18.0833	-8.3999	18.0867	7.1944	0.0000	0.0000	0.0000	0.0000;
	168	159	0.006099	0.044831	0.070954	316	316	316	0	0	1	-360	360	-4.3244	-16.3899	4.3329	7.9349	0.0000	0.0000	0.0000	0.0000;
	176	136	0.002211	0.01655	0.024781	316	316	316	0	0	1	-360	360	6.7754	-4.8236	-6.7744	1.7844	0.0000	0.0000	0.0000	0.0000;
	178	177	0.005169	0.036979	0.058951	316	316	316	0	0	1	-360	360	-10.2104	1.8005	10.2160	-9.0150	0.0000	0.0000	0.0000	0.0000;
	181	173	0.002401	0.017789	0.027588	381	381	381	0	0	1	-360	360	-31.8933	5.3681	31.9146	-8.5332	0.0000	0.0000	0.0000	0.0000;
	157	138	0.00274	0.02696	0.70592	977	977	977	0	0	1	-360	360	142.8746	-96.5036	-142.2442	28.2136	0.0000	0.0000	0.0000	0.0000;
	163	139	0.0017	0.01733	0.45632	915	915	915	0	0	1	-360	360	-9.9832	3.2290	9.9970	-52.0502	0.0000	0.0000	0.0000	0.0000;
	161	162	0.00136	0.01574	0.433664	1469	1469	1469	0	0	1	-360	360	-62.2323	-17.5499	62.2816	-28.6126	0.0000	0.0000	0.0000	0.0000;
	171	151	0.00371	0.04326	1.18688	693	693	693	0	0	1	-360	360	-3.2033	-77.3444	3.2113	-48.6060	0.0000	0.0000	0.0000	0.0000;
	188	193	0.01882	0.137581	0.25381	299	299	299	0	0	1	-360	360	-68.4629	5.0639	69.2551	-29.7744	0.0000	0.0000	0.0000	0.0000;
	197	203	0.02756	0.16014	0.242871	269	269	269	0	0	1	-360	360	-43.1910	-9.5526	43.6435	-15.8697	0.0000	0.0000	0.0000	0.0000;
	189	208	0.01905	0.11132	0.167851	269	269	269	0	0	1	-360	360	-19.4764	-9.8681	19.5360	-10.2038	0.0000	0.0000	0.0000	0.0000;
	191	194	0.00795	0.05919	0.090798	316	316	316	0	0	1	-360	360	-85.7696	18.5216	86.2938	-25.4851	0.0000	0.0000	0.0000	0.0000;
...